/*---------------------------------------------------------------------------*\
| =========                 |                                                 |
| \\      /  F ield         | OpenFOAM: The Open Source CFD Toolbox           |
|  \\    /   O peration     | Version:  v1912                                 |
|   \\  /    A nd           | Website:  www.openfoam.com                      |
|    \\/     M anipulation  |                                                 |
\*---------------------------------------------------------------------------*/
Build  : _f3950763fe-20191219 OPENFOAM=1912
Arch   : "LSB;label=32;scalar=64"
Exec   : pisoFoam -parallel
Date   : Aug 01 2021
Time   : 12:59:18
Host   : dibyendu-VirtualBox
PID    : 4820
I/O    : uncollated
Case   : /home/dibyendu/openfoam_try/parallel_cylinder_pisoFoam_RAS
nProcs : 3
Hosts  :
(
    (dibyendu-VirtualBox 3)
)
Pstream initialized with:
    floatTransfer      : 0
    nProcsSimpleSum    : 0
    commsType          : nonBlocking
    polling iterations : 0
trapFpe: Floating point exception trapping enabled (FOAM_SIGFPE).
fileModificationChecking : Monitoring run-time modified files using timeStampMaster (fileModificationSkew 10)
allowSystemOperations : Allowing user-supplied system call operations

// * * * * * * * * * * * * * * * * * * * * * * * * * * * * * * * * * * * * * //
Create time

Create mesh for time = 0


PISO: Operating solver in PISO mode

Reading field p

Reading field U

Reading/calculating face flux field phi

Selecting incompressible transport model Newtonian
Selecting turbulence model type RAS
Selecting RAS turbulence model kEpsilon
RAS
{
    RASModel        kEpsilon;
    turbulence      on;
    printCoeffs     on;
    Cmu             0.09;
    C1              1.44;
    C2              1.92;
    C3              0;
    sigmak          1;
    sigmaEps        1.3;
}

No MRF models present

No finite volume options present

Starting time loop

Time = 0.08

Courant Number mean: 0.120763 max: 0.979789
smoothSolver:  Solving for Ux, Initial residual = 1, Final residual = 7.31142e-07, No Iterations 5
smoothSolver:  Solving for Uy, Initial residual = 1, Final residual = 7.31141e-07, No Iterations 5
smoothSolver:  Solving for Uz, Initial residual = 1, Final residual = 5.06296e-06, No Iterations 3
DICPCG:  Solving for p, Initial residual = 1, Final residual = 0.0447397, No Iterations 470
time step continuity errors : sum local = 3.2296e-07, global = 1.38186e-09, cumulative = 1.38186e-09
DICPCG:  Solving for p, Initial residual = 0.00128933, Final residual = 8.39091e-07, No Iterations 478
time step continuity errors : sum local = 1.01241e-09, global = 1.23104e-11, cumulative = 1.39417e-09
smoothSolver:  Solving for epsilon, Initial residual = 0.00262721, Final residual = 6.37907e-07, No Iterations 2
smoothSolver:  Solving for k, Initial residual = 1, Final residual = 9.14263e-06, No Iterations 3
ExecutionTime = 4.33 s  ClockTime = 4 s

Time = 0.16

Courant Number mean: 0.121046 max: 0.950997
smoothSolver:  Solving for Ux, Initial residual = 0.328813, Final residual = 6.76912e-06, No Iterations 4
smoothSolver:  Solving for Uy, Initial residual = 0.328791, Final residual = 6.74824e-06, No Iterations 4
smoothSolver:  Solving for Uz, Initial residual = 0.69646, Final residual = 2.92669e-06, No Iterations 3
DICPCG:  Solving for p, Initial residual = 0.00924428, Final residual = 0.000417995, No Iterations 465
time step continuity errors : sum local = 5.30807e-07, global = 3.82834e-09, cumulative = 5.22251e-09
DICPCG:  Solving for p, Initial residual = 0.079941, Final residual = 9.17308e-07, No Iterations 502
time step continuity errors : sum local = 2.28633e-11, global = -7.84271e-14, cumulative = 5.22243e-09
smoothSolver:  Solving for epsilon, Initial residual = 0.00107004, Final residual = 7.06842e-06, No Iterations 1
smoothSolver:  Solving for k, Initial residual = 0.186321, Final residual = 8.52311e-06, No Iterations 2
ExecutionTime = 7.78 s  ClockTime = 7 s

Time = 0.24

Courant Number mean: 0.121044 max: 0.957839
smoothSolver:  Solving for Ux, Initial residual = 0.0370137, Final residual = 3.49571e-06, No Iterations 4
smoothSolver:  Solving for Uy, Initial residual = 0.0370038, Final residual = 3.49857e-06, No Iterations 4
smoothSolver:  Solving for Uz, Initial residual = 0.0824123, Final residual = 1.09318e-06, No Iterations 3
DICPCG:  Solving for p, Initial residual = 0.0524774, Final residual = 0.00132472, No Iterations 2
time step continuity errors : sum local = 6.60777e-08, global = -9.47958e-09, cumulative = -4.25715e-09
DICPCG:  Solving for p, Initial residual = 0.00484099, Final residual = 8.85233e-07, No Iterations 489
time step continuity errors : sum local = 4.22862e-11, global = -1.62087e-13, cumulative = -4.25732e-09
smoothSolver:  Solving for epsilon, Initial residual = 0.000988627, Final residual = 6.63327e-06, No Iterations 1
smoothSolver:  Solving for k, Initial residual = 0.105129, Final residual = 4.2685e-06, No Iterations 2
ExecutionTime = 9.75 s  ClockTime = 9 s

Time = 0.32

Courant Number mean: 0.121041 max: 0.96062
smoothSolver:  Solving for Ux, Initial residual = 0.0238215, Final residual = 2.79149e-06, No Iterations 4
smoothSolver:  Solving for Uy, Initial residual = 0.023824, Final residual = 2.7935e-06, No Iterations 4
smoothSolver:  Solving for Uz, Initial residual = 0.0636168, Final residual = 7.71473e-06, No Iterations 2
DICPCG:  Solving for p, Initial residual = 0.0190867, Final residual = 0.000735861, No Iterations 2
time step continuity errors : sum local = 3.47779e-08, global = -4.9116e-09, cumulative = -9.16891e-09
DICPCG:  Solving for p, Initial residual = 0.00195851, Final residual = 9.70234e-07, No Iterations 488
time step continuity errors : sum local = 4.52382e-11, global = -6.79506e-14, cumulative = -9.16898e-09
smoothSolver:  Solving for epsilon, Initial residual = 0.000921216, Final residual = 5.33417e-06, No Iterations 1
bounding epsilon, min: -1.64512e-06 max: 0.000164035 average: 2.61313e-06
smoothSolver:  Solving for k, Initial residual = 0.073361, Final residual = 2.96439e-06, No Iterations 2
ExecutionTime = 11.73 s  ClockTime = 11 s

Time = 0.4

Courant Number mean: 0.121038 max: 0.956999
smoothSolver:  Solving for Ux, Initial residual = 0.0195978, Final residual = 2.62154e-06, No Iterations 4
smoothSolver:  Solving for Uy, Initial residual = 0.0196161, Final residual = 2.62463e-06, No Iterations 4
smoothSolver:  Solving for Uz, Initial residual = 0.0517135, Final residual = 6.1809e-06, No Iterations 2
DICPCG:  Solving for p, Initial residual = 0.0124271, Final residual = 0.000564577, No Iterations 2
time step continuity errors : sum local = 2.61249e-08, global = -4.27487e-09, cumulative = -1.34439e-08
DICPCG:  Solving for p, Initial residual = 0.00138591, Final residual = 8.83005e-07, No Iterations 488
time step continuity errors : sum local = 4.0524e-11, global = 1.0606e-13, cumulative = -1.34437e-08
smoothSolver:  Solving for epsilon, Initial residual = 0.000869489, Final residual = 5.28247e-06, No Iterations 1
bounding epsilon, min: -4.22094e-07 max: 0.000193246 average: 2.70251e-06
smoothSolver:  Solving for k, Initial residual = 0.0564345, Final residual = 2.38785e-06, No Iterations 2
ExecutionTime = 13.69 s  ClockTime = 13 s

Time = 0.48

Courant Number mean: 0.121036 max: 0.954038
smoothSolver:  Solving for Ux, Initial residual = 0.016968, Final residual = 2.35036e-06, No Iterations 4
smoothSolver:  Solving for Uy, Initial residual = 0.0169699, Final residual = 2.35126e-06, No Iterations 4
smoothSolver:  Solving for Uz, Initial residual = 0.0434803, Final residual = 4.93623e-06, No Iterations 2
DICPCG:  Solving for p, Initial residual = 0.00932179, Final residual = 0.000446992, No Iterations 2
time step continuity errors : sum local = 2.04605e-08, global = -3.69715e-09, cumulative = -1.71409e-08
DICPCG:  Solving for p, Initial residual = 0.00107345, Final residual = 7.64617e-07, No Iterations 488
time step continuity errors : sum local = 3.48021e-11, global = 3.50831e-14, cumulative = -1.71409e-08
smoothSolver:  Solving for epsilon, Initial residual = 0.000822745, Final residual = 4.99736e-06, No Iterations 1
bounding epsilon, min: -1.108e-06 max: 0.000218257 average: 2.78556e-06
smoothSolver:  Solving for k, Initial residual = 0.0459156, Final residual = 1.99595e-06, No Iterations 2
ExecutionTime = 15.68 s  ClockTime = 15 s

Time = 0.56

Courant Number mean: 0.121033 max: 0.952087
smoothSolver:  Solving for Ux, Initial residual = 0.0151912, Final residual = 1.99988e-06, No Iterations 4
smoothSolver:  Solving for Uy, Initial residual = 0.0151944, Final residual = 1.99979e-06, No Iterations 4
smoothSolver:  Solving for Uz, Initial residual = 0.0374939, Final residual = 4.04286e-06, No Iterations 2
DICPCG:  Solving for p, Initial residual = 0.00734438, Final residual = 0.000334323, No Iterations 2
time step continuity errors : sum local = 1.52197e-08, global = -2.76767e-09, cumulative = -1.99085e-08
DICPCG:  Solving for p, Initial residual = 0.00088504, Final residual = 9.58917e-07, No Iterations 447
time step continuity errors : sum local = 4.34755e-11, global = -1.16564e-12, cumulative = -1.99097e-08
smoothSolver:  Solving for epsilon, Initial residual = 0.000782859, Final residual = 4.92061e-06, No Iterations 1
bounding epsilon, min: -3.94468e-07 max: 0.00023934 average: 2.86523e-06
smoothSolver:  Solving for k, Initial residual = 0.0387464, Final residual = 1.77393e-06, No Iterations 2
ExecutionTime = 17.53 s  ClockTime = 17 s

Time = 0.64

Courant Number mean: 0.121031 max: 0.949513
smoothSolver:  Solving for Ux, Initial residual = 0.0140068, Final residual = 9.6262e-06, No Iterations 3
smoothSolver:  Solving for Uy, Initial residual = 0.0140198, Final residual = 9.6272e-06, No Iterations 3
smoothSolver:  Solving for Uz, Initial residual = 0.0329522, Final residual = 3.34192e-06, No Iterations 2
DICPCG:  Solving for p, Initial residual = 0.006022, Final residual = 0.000256198, No Iterations 2
time step continuity errors : sum local = 1.16354e-08, global = -2.06046e-09, cumulative = -2.19702e-08
DICPCG:  Solving for p, Initial residual = 0.000731258, Final residual = 8.29366e-07, No Iterations 486
time step continuity errors : sum local = 3.75483e-11, global = 4.37006e-14, cumulative = -2.19701e-08
smoothSolver:  Solving for epsilon, Initial residual = 0.00074791, Final residual = 4.70409e-06, No Iterations 1
bounding epsilon, min: -3.65109e-07 max: 0.000257012 average: 2.93989e-06
smoothSolver:  Solving for k, Initial residual = 0.0335456, Final residual = 1.53773e-06, No Iterations 2
ExecutionTime = 19.55 s  ClockTime = 19 s

Time = 0.72

Courant Number mean: 0.121028 max: 0.94697
smoothSolver:  Solving for Ux, Initial residual = 0.0133469, Final residual = 8.82269e-06, No Iterations 3
smoothSolver:  Solving for Uy, Initial residual = 0.0133527, Final residual = 8.82406e-06, No Iterations 3
smoothSolver:  Solving for Uz, Initial residual = 0.0293905, Final residual = 2.89496e-06, No Iterations 2
DICPCG:  Solving for p, Initial residual = 0.00520956, Final residual = 0.000205065, No Iterations 2
time step continuity errors : sum local = 9.30804e-09, global = -1.40976e-09, cumulative = -2.33799e-08
DICPCG:  Solving for p, Initial residual = 0.000643511, Final residual = 8.70157e-07, No Iterations 485
time step continuity errors : sum local = 3.93964e-11, global = 2.32911e-13, cumulative = -2.33796e-08
smoothSolver:  Solving for epsilon, Initial residual = 0.000717628, Final residual = 4.61311e-06, No Iterations 1
bounding epsilon, min: -3.30886e-07 max: 0.000271997 average: 3.01147e-06
smoothSolver:  Solving for k, Initial residual = 0.0295985, Final residual = 1.33034e-06, No Iterations 2
ExecutionTime = 21.54 s  ClockTime = 21 s

Time = 0.8

Courant Number mean: 0.121026 max: 0.944899
smoothSolver:  Solving for Ux, Initial residual = 0.0127511, Final residual = 7.98005e-06, No Iterations 3
smoothSolver:  Solving for Uy, Initial residual = 0.0127559, Final residual = 7.97811e-06, No Iterations 3
smoothSolver:  Solving for Uz, Initial residual = 0.0265226, Final residual = 2.56531e-06, No Iterations 2
DICPCG:  Solving for p, Initial residual = 0.00454862, Final residual = 0.00016566, No Iterations 2
time step continuity errors : sum local = 7.52578e-09, global = -8.88759e-10, cumulative = -2.42684e-08
DICPCG:  Solving for p, Initial residual = 0.000575062, Final residual = 9.40134e-07, No Iterations 469
time step continuity errors : sum local = 4.26264e-11, global = -7.90516e-13, cumulative = -2.42692e-08
smoothSolver:  Solving for epsilon, Initial residual = 0.000689776, Final residual = 4.42917e-06, No Iterations 1
bounding epsilon, min: -3.1378e-07 max: 0.000284895 average: 3.07903e-06
smoothSolver:  Solving for k, Initial residual = 0.0264983, Final residual = 1.10924e-06, No Iterations 2
ExecutionTime = 23.5 s  ClockTime = 23 s

Time = 0.88

Courant Number mean: 0.121023 max: 0.94348
smoothSolver:  Solving for Ux, Initial residual = 0.0121348, Final residual = 6.98182e-06, No Iterations 3
smoothSolver:  Solving for Uy, Initial residual = 0.0121408, Final residual = 6.98401e-06, No Iterations 3
smoothSolver:  Solving for Uz, Initial residual = 0.0241665, Final residual = 2.29169e-06, No Iterations 2
DICPCG:  Solving for p, Initial residual = 0.00392643, Final residual = 0.000129865, No Iterations 2
time step continuity errors : sum local = 5.91041e-09, global = -4.44436e-10, cumulative = -2.47136e-08
DICPCG:  Solving for p, Initial residual = 0.000483175, Final residual = 9.24536e-07, No Iterations 475
time step continuity errors : sum local = 4.20114e-11, global = -5.1303e-13, cumulative = -2.47141e-08
smoothSolver:  Solving for epsilon, Initial residual = 0.000664536, Final residual = 4.31422e-06, No Iterations 1
bounding epsilon, min: -2.99617e-07 max: 0.000296208 average: 3.14385e-06
smoothSolver:  Solving for k, Initial residual = 0.0239981, Final residual = 9.76516e-07, No Iterations 2
ExecutionTime = 25.48 s  ClockTime = 25 s

Time = 0.96

Courant Number mean: 0.121021 max: 0.942698
smoothSolver:  Solving for Ux, Initial residual = 0.011599, Final residual = 6.11089e-06, No Iterations 3
smoothSolver:  Solving for Uy, Initial residual = 0.0115992, Final residual = 6.10677e-06, No Iterations 3
smoothSolver:  Solving for Uz, Initial residual = 0.0221966, Final residual = 2.06974e-06, No Iterations 2
DICPCG:  Solving for p, Initial residual = 0.00345064, Final residual = 0.000116486, No Iterations 2
time step continuity errors : sum local = 5.31542e-09, global = -1.64822e-10, cumulative = -2.4879e-08
DICPCG:  Solving for p, Initial residual = 0.000441423, Final residual = 9.56709e-07, No Iterations 478
time step continuity errors : sum local = 4.36052e-11, global = 6.65714e-15, cumulative = -2.4879e-08
smoothSolver:  Solving for epsilon, Initial residual = 0.000641248, Final residual = 4.16196e-06, No Iterations 1
bounding epsilon, min: -2.94083e-07 max: 0.000306279 average: 3.20553e-06
smoothSolver:  Solving for k, Initial residual = 0.0219374, Final residual = 8.45263e-07, No Iterations 2
ExecutionTime = 27.45 s  ClockTime = 27 s

Time = 1.04

Courant Number mean: 0.121018 max: 0.94241
smoothSolver:  Solving for Ux, Initial residual = 0.0111347, Final residual = 5.30918e-06, No Iterations 3
smoothSolver:  Solving for Uy, Initial residual = 0.0111344, Final residual = 5.30804e-06, No Iterations 3
smoothSolver:  Solving for Uz, Initial residual = 0.0205267, Final residual = 1.88666e-06, No Iterations 2
DICPCG:  Solving for p, Initial residual = 0.00312195, Final residual = 0.000110424, No Iterations 2
time step continuity errors : sum local = 5.05562e-09, global = -3.60455e-12, cumulative = -2.48826e-08
DICPCG:  Solving for p, Initial residual = 0.00041195, Final residual = 8.38767e-07, No Iterations 478
time step continuity errors : sum local = 3.83695e-11, global = -4.46302e-13, cumulative = -2.4883e-08
smoothSolver:  Solving for epsilon, Initial residual = 0.000619883, Final residual = 3.95899e-06, No Iterations 1
bounding epsilon, min: -2.89986e-07 max: 0.000314887 average: 3.2645e-06
smoothSolver:  Solving for k, Initial residual = 0.020209, Final residual = 7.42789e-07, No Iterations 2
ExecutionTime = 29.4 s  ClockTime = 29 s

Time = 1.12

Courant Number mean: 0.121015 max: 0.942417
smoothSolver:  Solving for Ux, Initial residual = 0.0117818, Final residual = 8.10295e-06, No Iterations 3
smoothSolver:  Solving for Uy, Initial residual = 0.011788, Final residual = 8.17102e-06, No Iterations 3
smoothSolver:  Solving for Uz, Initial residual = 0.019153, Final residual = 2.70146e-06, No Iterations 2
DICPCG:  Solving for p, Initial residual = 0.00324269, Final residual = 0.000138143, No Iterations 2
time step continuity errors : sum local = 6.34972e-09, global = 1.3777e-10, cumulative = -2.47452e-08
DICPCG:  Solving for p, Initial residual = 0.000501933, Final residual = 9.70244e-07, No Iterations 481
time step continuity errors : sum local = 4.45795e-11, global = -1.02935e-12, cumulative = -2.47463e-08
smoothSolver:  Solving for epsilon, Initial residual = 0.000610947, Final residual = 7.75715e-06, No Iterations 1
bounding epsilon, min: -2.8797e-07 max: 0.000322239 average: 3.32176e-06
smoothSolver:  Solving for k, Initial residual = 0.0187411, Final residual = 9.03163e-07, No Iterations 2
ExecutionTime = 31.39 s  ClockTime = 31 s

Time = 1.2

Courant Number mean: 0.121013 max: 0.942537
smoothSolver:  Solving for Ux, Initial residual = 0.0104985, Final residual = 4.58073e-06, No Iterations 3
smoothSolver:  Solving for Uy, Initial residual = 0.0104938, Final residual = 4.57079e-06, No Iterations 3
smoothSolver:  Solving for Uz, Initial residual = 0.0178558, Final residual = 1.57396e-06, No Iterations 2
DICPCG:  Solving for p, Initial residual = 0.00377989, Final residual = 0.000138998, No Iterations 3
time step continuity errors : sum local = 6.42065e-09, global = 5.00548e-11, cumulative = -2.46962e-08
DICPCG:  Solving for p, Initial residual = 0.000751162, Final residual = 9.8727e-07, No Iterations 467
time step continuity errors : sum local = 4.5541e-11, global = -9.83672e-13, cumulative = -2.46972e-08
smoothSolver:  Solving for epsilon, Initial residual = 0.000582907, Final residual = 3.63324e-06, No Iterations 1
bounding epsilon, min: -1.23399e-06 max: 0.000328474 average: 3.37505e-06
smoothSolver:  Solving for k, Initial residual = 0.0174701, Final residual = 5.8856e-07, No Iterations 2
ExecutionTime = 33.3 s  ClockTime = 33 s

Time = 1.28

Courant Number mean: 0.12101 max: 0.94261
smoothSolver:  Solving for Ux, Initial residual = 0.00988548, Final residual = 4.15312e-06, No Iterations 3
smoothSolver:  Solving for Uy, Initial residual = 0.0098875, Final residual = 4.15651e-06, No Iterations 3
smoothSolver:  Solving for Uz, Initial residual = 0.0167624, Final residual = 1.43917e-06, No Iterations 2
DICPCG:  Solving for p, Initial residual = 0.00226993, Final residual = 8.28456e-05, No Iterations 2
time step continuity errors : sum local = 3.83797e-09, global = 1.76556e-10, cumulative = -2.45206e-08
DICPCG:  Solving for p, Initial residual = 0.000327069, Final residual = 9.22496e-07, No Iterations 480
time step continuity errors : sum local = 4.27159e-11, global = -1.12201e-12, cumulative = -2.45218e-08
smoothSolver:  Solving for epsilon, Initial residual = 0.000565359, Final residual = 3.46568e-06, No Iterations 1
bounding epsilon, min: -2.81482e-07 max: 0.000333649 average: 3.42763e-06
smoothSolver:  Solving for k, Initial residual = 0.0163634, Final residual = 5.3474e-07, No Iterations 2
ExecutionTime = 35.27 s  ClockTime = 35 s

Time = 1.36

Courant Number mean: 0.121008 max: 0.942551
smoothSolver:  Solving for Ux, Initial residual = 0.00962805, Final residual = 4.08332e-06, No Iterations 3
smoothSolver:  Solving for Uy, Initial residual = 0.00962315, Final residual = 4.08311e-06, No Iterations 3
smoothSolver:  Solving for Uz, Initial residual = 0.0157989, Final residual = 1.33703e-06, No Iterations 2
DICPCG:  Solving for p, Initial residual = 0.00213986, Final residual = 7.52716e-05, No Iterations 2
time step continuity errors : sum local = 3.501e-09, global = 1.7756e-10, cumulative = -2.43442e-08
DICPCG:  Solving for p, Initial residual = 0.000326176, Final residual = 9.25951e-07, No Iterations 477
time step continuity errors : sum local = 4.30496e-11, global = -8.13159e-13, cumulative = -2.4345e-08
smoothSolver:  Solving for epsilon, Initial residual = 0.000549632, Final residual = 3.38487e-06, No Iterations 1
bounding epsilon, min: -2.76461e-07 max: 0.000337776 average: 3.4786e-06
smoothSolver:  Solving for k, Initial residual = 0.0153897, Final residual = 4.95325e-07, No Iterations 2
ExecutionTime = 37.21 s  ClockTime = 37 s

Time = 1.44

Courant Number mean: 0.121005 max: 0.942327
smoothSolver:  Solving for Ux, Initial residual = 0.00926529, Final residual = 3.89284e-06, No Iterations 3
smoothSolver:  Solving for Uy, Initial residual = 0.00926178, Final residual = 3.88061e-06, No Iterations 3
smoothSolver:  Solving for Uz, Initial residual = 0.0149398, Final residual = 1.23996e-06, No Iterations 2
DICPCG:  Solving for p, Initial residual = 0.00209311, Final residual = 7.88918e-05, No Iterations 2
time step continuity errors : sum local = 3.68492e-09, global = 1.74054e-10, cumulative = -2.4171e-08
DICPCG:  Solving for p, Initial residual = 0.000336846, Final residual = 9.49587e-07, No Iterations 474
time step continuity errors : sum local = 4.43373e-11, global = -2.53601e-13, cumulative = -2.41712e-08
smoothSolver:  Solving for epsilon, Initial residual = 0.000534425, Final residual = 3.22094e-06, No Iterations 1
bounding epsilon, min: -4.55207e-07 max: 0.000340878 average: 3.52728e-06
smoothSolver:  Solving for k, Initial residual = 0.0145252, Final residual = 4.62626e-07, No Iterations 2
ExecutionTime = 39.15 s  ClockTime = 39 s

Time = 1.52

Courant Number mean: 0.121003 max: 0.941962
smoothSolver:  Solving for Ux, Initial residual = 0.00896939, Final residual = 3.56859e-06, No Iterations 3
smoothSolver:  Solving for Uy, Initial residual = 0.00895312, Final residual = 3.57059e-06, No Iterations 3
smoothSolver:  Solving for Uz, Initial residual = 0.0141727, Final residual = 1.16145e-06, No Iterations 2
DICPCG:  Solving for p, Initial residual = 0.00184614, Final residual = 7.65572e-05, No Iterations 2
time step continuity errors : sum local = 3.59017e-09, global = 1.44875e-10, cumulative = -2.40263e-08
DICPCG:  Solving for p, Initial residual = 0.000290762, Final residual = 9.08741e-07, No Iterations 476
time step continuity errors : sum local = 4.26052e-11, global = -7.42398e-13, cumulative = -2.40271e-08
smoothSolver:  Solving for epsilon, Initial residual = 0.000520749, Final residual = 3.20099e-06, No Iterations 1
bounding epsilon, min: -2.64553e-07 max: 0.000343088 average: 3.57533e-06
smoothSolver:  Solving for k, Initial residual = 0.0137528, Final residual = 4.39538e-07, No Iterations 2
ExecutionTime = 41.08 s  ClockTime = 41 s

Time = 1.6

Courant Number mean: 0.121 max: 0.941506
smoothSolver:  Solving for Ux, Initial residual = 0.00878756, Final residual = 3.29432e-06, No Iterations 3
smoothSolver:  Solving for Uy, Initial residual = 0.00878082, Final residual = 3.28438e-06, No Iterations 3
smoothSolver:  Solving for Uz, Initial residual = 0.0134855, Final residual = 1.10747e-06, No Iterations 2
DICPCG:  Solving for p, Initial residual = 0.00197498, Final residual = 5.24514e-05, No Iterations 3
time step continuity errors : sum local = 2.47001e-09, global = 6.81487e-11, cumulative = -2.39589e-08
DICPCG:  Solving for p, Initial residual = 0.000332407, Final residual = 8.40009e-07, No Iterations 475
time step continuity errors : sum local = 3.95486e-11, global = -6.43063e-13, cumulative = -2.39596e-08
smoothSolver:  Solving for epsilon, Initial residual = 0.000508586, Final residual = 3.20533e-06, No Iterations 1
bounding epsilon, min: -5.50084e-07 max: 0.000344542 average: 3.62204e-06
smoothSolver:  Solving for k, Initial residual = 0.0130579, Final residual = 4.1246e-07, No Iterations 2
ExecutionTime = 43.07 s  ClockTime = 43 s

Time = 1.68

Courant Number mean: 0.120998 max: 0.941022
smoothSolver:  Solving for Ux, Initial residual = 0.008408, Final residual = 2.95891e-06, No Iterations 3
smoothSolver:  Solving for Uy, Initial residual = 0.00840939, Final residual = 2.95171e-06, No Iterations 3
smoothSolver:  Solving for Uz, Initial residual = 0.012854, Final residual = 1.01931e-06, No Iterations 2
DICPCG:  Solving for p, Initial residual = 0.00195283, Final residual = 9.51573e-05, No Iterations 2
time step continuity errors : sum local = 4.49976e-09, global = 1.01307e-10, cumulative = -2.38583e-08
DICPCG:  Solving for p, Initial residual = 0.000358027, Final residual = 9.56163e-07, No Iterations 474
time step continuity errors : sum local = 4.51989e-11, global = 3.14846e-13, cumulative = -2.38579e-08
smoothSolver:  Solving for epsilon, Initial residual = 0.000495413, Final residual = 2.91996e-06, No Iterations 1
bounding epsilon, min: -9.55931e-07 max: 0.00034539 average: 3.66725e-06
smoothSolver:  Solving for k, Initial residual = 0.0124287, Final residual = 3.8074e-07, No Iterations 2
ExecutionTime = 45.02 s  ClockTime = 45 s

Time = 1.76

Courant Number mean: 0.120995 max: 0.940563
smoothSolver:  Solving for Ux, Initial residual = 0.00813667, Final residual = 2.49434e-06, No Iterations 3
smoothSolver:  Solving for Uy, Initial residual = 0.00813, Final residual = 2.50177e-06, No Iterations 3
smoothSolver:  Solving for Uz, Initial residual = 0.0122858, Final residual = 9.6666e-07, No Iterations 2
DICPCG:  Solving for p, Initial residual = 0.0015322, Final residual = 7.00089e-05, No Iterations 2
time step continuity errors : sum local = 3.32311e-09, global = 7.15749e-11, cumulative = -2.37864e-08
DICPCG:  Solving for p, Initial residual = 0.000260055, Final residual = 9.3963e-07, No Iterations 476
time step continuity errors : sum local = 4.45968e-11, global = -1.29447e-12, cumulative = -2.37877e-08
smoothSolver:  Solving for epsilon, Initial residual = 0.000483631, Final residual = 2.83927e-06, No Iterations 1
bounding epsilon, min: -2.47591e-07 max: 0.000345813 average: 3.71217e-06
smoothSolver:  Solving for k, Initial residual = 0.0118564, Final residual = 3.60662e-07, No Iterations 2
ExecutionTime = 46.95 s  ClockTime = 47 s

Time = 1.84

Courant Number mean: 0.120992 max: 0.940168
smoothSolver:  Solving for Ux, Initial residual = 0.00797475, Final residual = 2.22926e-06, No Iterations 3
smoothSolver:  Solving for Uy, Initial residual = 0.00796857, Final residual = 2.22172e-06, No Iterations 3
smoothSolver:  Solving for Uz, Initial residual = 0.011772, Final residual = 9.24331e-07, No Iterations 2
DICPCG:  Solving for p, Initial residual = 0.00154294, Final residual = 7.34517e-05, No Iterations 2
time step continuity errors : sum local = 3.50058e-09, global = 5.3044e-12, cumulative = -2.37824e-08
DICPCG:  Solving for p, Initial residual = 0.000275248, Final residual = 8.6263e-07, No Iterations 477
time step continuity errors : sum local = 4.11065e-11, global = -1.02833e-12, cumulative = -2.37834e-08
smoothSolver:  Solving for epsilon, Initial residual = 0.000473123, Final residual = 2.82946e-06, No Iterations 1
bounding epsilon, min: -2.43173e-07 max: 0.000345963 average: 3.75624e-06
smoothSolver:  Solving for k, Initial residual = 0.0113337, Final residual = 3.41669e-07, No Iterations 2
ExecutionTime = 48.89 s  ClockTime = 48 s

Time = 1.92

Courant Number mean: 0.12099 max: 0.939861
smoothSolver:  Solving for Ux, Initial residual = 0.00776707, Final residual = 2.01335e-06, No Iterations 3
smoothSolver:  Solving for Uy, Initial residual = 0.00775175, Final residual = 2.01615e-06, No Iterations 3
smoothSolver:  Solving for Uz, Initial residual = 0.0112978, Final residual = 8.74174e-07, No Iterations 2
DICPCG:  Solving for p, Initial residual = 0.00158536, Final residual = 4.05501e-05, No Iterations 3
time step continuity errors : sum local = 1.9402e-09, global = -3.77492e-11, cumulative = -2.38211e-08
DICPCG:  Solving for p, Initial residual = 0.000290744, Final residual = 7.90463e-07, No Iterations 477
time step continuity errors : sum local = 3.78144e-11, global = -9.43733e-13, cumulative = -2.38221e-08
smoothSolver:  Solving for epsilon, Initial residual = 0.000462623, Final residual = 2.76697e-06, No Iterations 1
bounding epsilon, min: -7.05353e-07 max: 0.000345939 average: 3.7992e-06
smoothSolver:  Solving for k, Initial residual = 0.0108539, Final residual = 3.24581e-07, No Iterations 2
ExecutionTime = 50.85 s  ClockTime = 50 s

Time = 2

Courant Number mean: 0.120987 max: 0.939645
smoothSolver:  Solving for Ux, Initial residual = 0.0075337, Final residual = 1.85066e-06, No Iterations 3
smoothSolver:  Solving for Uy, Initial residual = 0.00752497, Final residual = 1.83458e-06, No Iterations 3
smoothSolver:  Solving for Uz, Initial residual = 0.0108619, Final residual = 8.24544e-07, No Iterations 2
DICPCG:  Solving for p, Initial residual = 0.00134129, Final residual = 3.99427e-05, No Iterations 3
time step continuity errors : sum local = 1.91833e-09, global = -3.25032e-11, cumulative = -2.38546e-08
DICPCG:  Solving for p, Initial residual = 0.000233499, Final residual = 8.88134e-07, No Iterations 476
time step continuity errors : sum local = 4.2651e-11, global = -9.05461e-13, cumulative = -2.38555e-08
smoothSolver:  Solving for epsilon, Initial residual = 0.000452493, Final residual = 2.62455e-06, No Iterations 1
bounding epsilon, min: -4.69315e-07 max: 0.000345846 average: 3.84161e-06
smoothSolver:  Solving for k, Initial residual = 0.0104115, Final residual = 3.07879e-07, No Iterations 2
ExecutionTime = 52.8 s  ClockTime = 52 s

Time = 2.08

Courant Number mean: 0.120985 max: 0.939511
smoothSolver:  Solving for Ux, Initial residual = 0.00743169, Final residual = 1.77026e-06, No Iterations 3
smoothSolver:  Solving for Uy, Initial residual = 0.00743193, Final residual = 1.76837e-06, No Iterations 3
smoothSolver:  Solving for Uz, Initial residual = 0.0104645, Final residual = 8.04683e-07, No Iterations 2
DICPCG:  Solving for p, Initial residual = 0.00136853, Final residual = 4.12579e-05, No Iterations 3
time step continuity errors : sum local = 1.98887e-09, global = -6.18432e-11, cumulative = -2.39173e-08
DICPCG:  Solving for p, Initial residual = 0.000252891, Final residual = 9.36898e-07, No Iterations 478
time step continuity errors : sum local = 4.51648e-11, global = -1.24515e-12, cumulative = -2.39186e-08
smoothSolver:  Solving for epsilon, Initial residual = 0.000444207, Final residual = 2.73861e-06, No Iterations 1
bounding epsilon, min: -2.33555e-07 max: 0.000345728 average: 3.88389e-06
smoothSolver:  Solving for k, Initial residual = 0.0100027, Final residual = 2.99889e-07, No Iterations 2
ExecutionTime = 54.77 s  ClockTime = 54 s

Time = 2.16

Courant Number mean: 0.120982 max: 0.939443
smoothSolver:  Solving for Ux, Initial residual = 0.00719138, Final residual = 1.69208e-06, No Iterations 3
smoothSolver:  Solving for Uy, Initial residual = 0.00718517, Final residual = 1.69221e-06, No Iterations 3
smoothSolver:  Solving for Uz, Initial residual = 0.0100891, Final residual = 7.42649e-07, No Iterations 2
DICPCG:  Solving for p, Initial residual = 0.00151102, Final residual = 4.91844e-05, No Iterations 3
time step continuity errors : sum local = 2.38002e-09, global = -8.14004e-11, cumulative = -2.4e-08
DICPCG:  Solving for p, Initial residual = 0.000299604, Final residual = 8.52146e-07, No Iterations 472
time step continuity errors : sum local = 4.12261e-11, global = 3.47745e-13, cumulative = -2.39996e-08
smoothSolver:  Solving for epsilon, Initial residual = 0.000434593, Final residual = 2.55284e-06, No Iterations 1
bounding epsilon, min: -9.30559e-07 max: 0.000345613 average: 3.92484e-06
smoothSolver:  Solving for k, Initial residual = 0.00962335, Final residual = 2.80635e-07, No Iterations 2
ExecutionTime = 56.69 s  ClockTime = 56 s

Time = 2.24

Courant Number mean: 0.12098 max: 0.93942
smoothSolver:  Solving for Ux, Initial residual = 0.00696065, Final residual = 1.4992e-06, No Iterations 3
smoothSolver:  Solving for Uy, Initial residual = 0.00695618, Final residual = 1.49248e-06, No Iterations 3
smoothSolver:  Solving for Uz, Initial residual = 0.00974243, Final residual = 7.06777e-07, No Iterations 2
DICPCG:  Solving for p, Initial residual = 0.00110976, Final residual = 3.17011e-05, No Iterations 3
time step continuity errors : sum local = 1.53915e-09, global = -9.61317e-11, cumulative = -2.40958e-08
DICPCG:  Solving for p, Initial residual = 0.000191087, Final residual = 8.05418e-07, No Iterations 477
time step continuity errors : sum local = 3.91033e-11, global = -6.10025e-13, cumulative = -2.40964e-08
smoothSolver:  Solving for epsilon, Initial residual = 0.000425816, Final residual = 2.46095e-06, No Iterations 1
bounding epsilon, min: -2.29014e-07 max: 0.000345529 average: 3.96571e-06
smoothSolver:  Solving for k, Initial residual = 0.00927029, Final residual = 2.68738e-07, No Iterations 2
ExecutionTime = 58.69 s  ClockTime = 58 s

Time = 2.32

Courant Number mean: 0.120977 max: 0.939423
smoothSolver:  Solving for Ux, Initial residual = 0.00692292, Final residual = 9.83303e-06, No Iterations 2
smoothSolver:  Solving for Uy, Initial residual = 0.00690619, Final residual = 9.80604e-06, No Iterations 2
smoothSolver:  Solving for Uz, Initial residual = 0.00942326, Final residual = 6.88351e-07, No Iterations 2
DICPCG:  Solving for p, Initial residual = 0.00116353, Final residual = 3.92247e-05, No Iterations 3
time step continuity errors : sum local = 1.91089e-09, global = -1.01553e-10, cumulative = -2.41979e-08
DICPCG:  Solving for p, Initial residual = 0.000222116, Final residual = 9.23399e-07, No Iterations 478
time step continuity errors : sum local = 4.49846e-11, global = -8.75123e-13, cumulative = -2.41988e-08
smoothSolver:  Solving for epsilon, Initial residual = 0.000418496, Final residual = 2.56851e-06, No Iterations 1
bounding epsilon, min: -2.27041e-07 max: 0.000345471 average: 4.00655e-06
smoothSolver:  Solving for k, Initial residual = 0.00894133, Final residual = 2.58337e-07, No Iterations 2
ExecutionTime = 60.66 s  ClockTime = 60 s

Time = 2.4

Courant Number mean: 0.120975 max: 0.939436
smoothSolver:  Solving for Ux, Initial residual = 0.00679203, Final residual = 9.55509e-06, No Iterations 2
smoothSolver:  Solving for Uy, Initial residual = 0.0067822, Final residual = 9.45683e-06, No Iterations 2
smoothSolver:  Solving for Uz, Initial residual = 0.00911869, Final residual = 6.50682e-07, No Iterations 2
DICPCG:  Solving for p, Initial residual = 0.00131433, Final residual = 4.88594e-05, No Iterations 3
time step continuity errors : sum local = 2.38874e-09, global = -9.45917e-11, cumulative = -2.42934e-08
DICPCG:  Solving for p, Initial residual = 0.000265741, Final residual = 8.736e-07, No Iterations 471
time step continuity errors : sum local = 4.27035e-11, global = -4.92831e-13, cumulative = -2.42939e-08
smoothSolver:  Solving for epsilon, Initial residual = 0.000409874, Final residual = 2.38525e-06, No Iterations 1
bounding epsilon, min: -7.57486e-07 max: 0.000345423 average: 4.04589e-06
smoothSolver:  Solving for k, Initial residual = 0.00863346, Final residual = 2.40998e-07, No Iterations 2
ExecutionTime = 62.65 s  ClockTime = 62 s

Time = 2.48

Courant Number mean: 0.120972 max: 0.93945
smoothSolver:  Solving for Ux, Initial residual = 0.00666233, Final residual = 8.44797e-06, No Iterations 2
smoothSolver:  Solving for Uy, Initial residual = 0.00666164, Final residual = 8.43933e-06, No Iterations 2
smoothSolver:  Solving for Uz, Initial residual = 0.00883592, Final residual = 6.27194e-07, No Iterations 2
DICPCG:  Solving for p, Initial residual = 0.000919942, Final residual = 2.64163e-05, No Iterations 3
time step continuity errors : sum local = 1.29544e-09, global = -9.0695e-11, cumulative = -2.43846e-08
DICPCG:  Solving for p, Initial residual = 0.000145835, Final residual = 9.3044e-07, No Iterations 477
time step continuity errors : sum local = 4.56291e-11, global = -1.04102e-12, cumulative = -2.43856e-08
smoothSolver:  Solving for epsilon, Initial residual = 0.000402023, Final residual = 2.32348e-06, No Iterations 1
bounding epsilon, min: -2.23934e-07 max: 0.000345401 average: 4.08563e-06
smoothSolver:  Solving for k, Initial residual = 0.00834489, Final residual = 2.32716e-07, No Iterations 2
ExecutionTime = 64.64 s  ClockTime = 64 s

Time = 2.56

Courant Number mean: 0.120969 max: 0.939458
smoothSolver:  Solving for Ux, Initial residual = 0.00670887, Final residual = 8.68032e-06, No Iterations 2
smoothSolver:  Solving for Uy, Initial residual = 0.00670371, Final residual = 8.66997e-06, No Iterations 2
smoothSolver:  Solving for Uz, Initial residual = 0.00857459, Final residual = 6.24059e-07, No Iterations 2
DICPCG:  Solving for p, Initial residual = 0.00109354, Final residual = 3.98554e-05, No Iterations 3
time step continuity errors : sum local = 1.9607e-09, global = -7.14511e-11, cumulative = -2.44571e-08
DICPCG:  Solving for p, Initial residual = 0.000205973, Final residual = 8.74872e-07, No Iterations 478
time step continuity errors : sum local = 4.30412e-11, global = -1.06769e-12, cumulative = -2.44581e-08
smoothSolver:  Solving for epsilon, Initial residual = 0.000395786, Final residual = 2.44091e-06, No Iterations 1
bounding epsilon, min: -2.23874e-07 max: 0.000345396 average: 4.12523e-06
smoothSolver:  Solving for k, Initial residual = 0.00807434, Final residual = 2.35336e-07, No Iterations 2
ExecutionTime = 66.6 s  ClockTime = 66 s

Time = 2.64

Courant Number mean: 0.120967 max: 0.939458
smoothSolver:  Solving for Ux, Initial residual = 0.00656588, Final residual = 8.32169e-06, No Iterations 2
smoothSolver:  Solving for Uy, Initial residual = 0.00656128, Final residual = 8.2848e-06, No Iterations 2
smoothSolver:  Solving for Uz, Initial residual = 0.00832125, Final residual = 5.8434e-07, No Iterations 2
DICPCG:  Solving for p, Initial residual = 0.00123061, Final residual = 5.01478e-05, No Iterations 3
time step continuity errors : sum local = 2.47501e-09, global = -5.68308e-11, cumulative = -2.4515e-08
DICPCG:  Solving for p, Initial residual = 0.00025958, Final residual = 9.86215e-07, No Iterations 472
time step continuity errors : sum local = 4.86621e-11, global = -9.26415e-13, cumulative = -2.45159e-08
smoothSolver:  Solving for epsilon, Initial residual = 0.000387949, Final residual = 2.23319e-06, No Iterations 1
bounding epsilon, min: -9.31005e-07 max: 0.000345399 average: 4.16349e-06
smoothSolver:  Solving for k, Initial residual = 0.00781943, Final residual = 2.20968e-07, No Iterations 2
ExecutionTime = 68.54 s  ClockTime = 68 s

Time = 2.72

Courant Number mean: 0.120964 max: 0.939451
smoothSolver:  Solving for Ux, Initial residual = 0.00642541, Final residual = 7.33789e-06, No Iterations 2
smoothSolver:  Solving for Uy, Initial residual = 0.00640901, Final residual = 7.3186e-06, No Iterations 2
smoothSolver:  Solving for Uz, Initial residual = 0.00808622, Final residual = 5.67294e-07, No Iterations 2
DICPCG:  Solving for p, Initial residual = 0.000881264, Final residual = 3.09449e-05, No Iterations 3
time step continuity errors : sum local = 1.53122e-09, global = -4.09703e-11, cumulative = -2.45569e-08
DICPCG:  Solving for p, Initial residual = 0.000147966, Final residual = 9.98225e-07, No Iterations 476
time step continuity errors : sum local = 4.93921e-11, global = -9.19292e-13, cumulative = -2.45578e-08
smoothSolver:  Solving for epsilon, Initial residual = 0.000381253, Final residual = 2.24976e-06, No Iterations 1
bounding epsilon, min: -2.23769e-07 max: 0.000345419 average: 4.20232e-06
smoothSolver:  Solving for k, Initial residual = 0.00757913, Final residual = 2.14815e-07, No Iterations 2
ExecutionTime = 70.51 s  ClockTime = 70 s

Time = 2.8

Courant Number mean: 0.120962 max: 0.939441
smoothSolver:  Solving for Ux, Initial residual = 0.00639105, Final residual = 7.58366e-06, No Iterations 2
smoothSolver:  Solving for Uy, Initial residual = 0.00638281, Final residual = 7.48208e-06, No Iterations 2
smoothSolver:  Solving for Uz, Initial residual = 0.00786527, Final residual = 5.53204e-07, No Iterations 2
DICPCG:  Solving for p, Initial residual = 0.0010037, Final residual = 3.74863e-05, No Iterations 3
time step continuity errors : sum local = 1.86028e-09, global = -2.76509e-11, cumulative = -2.45854e-08
DICPCG:  Solving for p, Initial residual = 0.000189761, Final residual = 8.20411e-07, No Iterations 473
time step continuity errors : sum local = 4.07117e-11, global = -6.44946e-13, cumulative = -2.45861e-08
smoothSolver:  Solving for epsilon, Initial residual = 0.000374982, Final residual = 2.24144e-06, No Iterations 1
bounding epsilon, min: -5.2793e-07 max: 0.000345445 average: 4.24059e-06
smoothSolver:  Solving for k, Initial residual = 0.00735226, Final residual = 2.06297e-07, No Iterations 2
ExecutionTime = 72.45 s  ClockTime = 72 s

Time = 2.88

Courant Number mean: 0.120959 max: 0.939888
smoothSolver:  Solving for Ux, Initial residual = 0.00626452, Final residual = 7.2891e-06, No Iterations 2
smoothSolver:  Solving for Uy, Initial residual = 0.00626481, Final residual = 7.26894e-06, No Iterations 2
smoothSolver:  Solving for Uz, Initial residual = 0.00765657, Final residual = 5.26963e-07, No Iterations 2
DICPCG:  Solving for p, Initial residual = 0.00101609, Final residual = 3.77249e-05, No Iterations 3
time step continuity errors : sum local = 1.87745e-09, global = -1.48864e-11, cumulative = -2.4601e-08
DICPCG:  Solving for p, Initial residual = 0.000203664, Final residual = 8.35338e-07, No Iterations 471
time step continuity errors : sum local = 4.15666e-11, global = 1.01406e-13, cumulative = -2.46009e-08
smoothSolver:  Solving for epsilon, Initial residual = 0.000368085, Final residual = 2.1131e-06, No Iterations 1
bounding epsilon, min: -7.64012e-07 max: 0.000345462 average: 4.27819e-06
smoothSolver:  Solving for k, Initial residual = 0.00713748, Final residual = 1.96843e-07, No Iterations 2
ExecutionTime = 74.42 s  ClockTime = 74 s

Time = 2.96

Courant Number mean: 0.120956 max: 0.941858
smoothSolver:  Solving for Ux, Initial residual = 0.00617346, Final residual = 6.66875e-06, No Iterations 2
smoothSolver:  Solving for Uy, Initial residual = 0.00616765, Final residual = 6.64869e-06, No Iterations 2
smoothSolver:  Solving for Uz, Initial residual = 0.00746121, Final residual = 5.11346e-07, No Iterations 2
DICPCG:  Solving for p, Initial residual = 0.000755632, Final residual = 2.33408e-05, No Iterations 3
time step continuity errors : sum local = 1.16454e-09, global = -6.55392e-12, cumulative = -2.46074e-08
DICPCG:  Solving for p, Initial residual = 0.000124477, Final residual = 9.93899e-07, No Iterations 472
time step continuity errors : sum local = 4.95885e-11, global = -1.13215e-12, cumulative = -2.46086e-08
smoothSolver:  Solving for epsilon, Initial residual = 0.000361893, Final residual = 2.07541e-06, No Iterations 1
bounding epsilon, min: -2.23888e-07 max: 0.00034549 average: 4.31605e-06
smoothSolver:  Solving for k, Initial residual = 0.00693401, Final residual = 1.90492e-07, No Iterations 2
ExecutionTime = 76.38 s  ClockTime = 76 s

Time = 3.04

Courant Number mean: 0.120954 max: 0.943837
smoothSolver:  Solving for Ux, Initial residual = 0.00620546, Final residual = 7.24108e-06, No Iterations 2
smoothSolver:  Solving for Uy, Initial residual = 0.00620166, Final residual = 7.1984e-06, No Iterations 2
smoothSolver:  Solving for Uz, Initial residual = 0.0072786, Final residual = 5.12873e-07, No Iterations 2
DICPCG:  Solving for p, Initial residual = 0.000952208, Final residual = 3.72113e-05, No Iterations 3
time step continuity errors : sum local = 1.86158e-09, global = 3.68994e-12, cumulative = -2.46049e-08
DICPCG:  Solving for p, Initial residual = 0.000183873, Final residual = 8.76008e-07, No Iterations 474
time step continuity errors : sum local = 4.38243e-11, global = -4.55899e-13, cumulative = -2.46053e-08
smoothSolver:  Solving for epsilon, Initial residual = 0.00035683, Final residual = 2.18544e-06, No Iterations 1
bounding epsilon, min: -2.23925e-07 max: 0.000345519 average: 4.35367e-06
smoothSolver:  Solving for k, Initial residual = 0.00674115, Final residual = 1.90567e-07, No Iterations 2
ExecutionTime = 78.33 s  ClockTime = 78 s

Time = 3.12

Courant Number mean: 0.120951 max: 0.945811
smoothSolver:  Solving for Ux, Initial residual = 0.0061261, Final residual = 7.10257e-06, No Iterations 2
smoothSolver:  Solving for Uy, Initial residual = 0.00610925, Final residual = 7.06772e-06, No Iterations 2
smoothSolver:  Solving for Uz, Initial residual = 0.0071, Final residual = 4.85391e-07, No Iterations 2
DICPCG:  Solving for p, Initial residual = 0.00112448, Final residual = 4.29145e-05, No Iterations 3
time step continuity errors : sum local = 2.15258e-09, global = 2.53903e-11, cumulative = -2.45799e-08
DICPCG:  Solving for p, Initial residual = 0.000235407, Final residual = 9.32328e-07, No Iterations 469
time step continuity errors : sum local = 4.67549e-11, global = 1.46241e-13, cumulative = -2.45798e-08
smoothSolver:  Solving for epsilon, Initial residual = 0.000350831, Final residual = 2.07617e-06, No Iterations 1
bounding epsilon, min: -9.45104e-07 max: 0.000345538 average: 4.3905e-06
smoothSolver:  Solving for k, Initial residual = 0.00655773, Final residual = 1.82804e-07, No Iterations 2
ExecutionTime = 80.25 s  ClockTime = 80 s

Time = 3.2

Courant Number mean: 0.120949 max: 0.947757
smoothSolver:  Solving for Ux, Initial residual = 0.00598296, Final residual = 6.37992e-06, No Iterations 2
smoothSolver:  Solving for Uy, Initial residual = 0.00597503, Final residual = 6.29717e-06, No Iterations 2
smoothSolver:  Solving for Uz, Initial residual = 0.00693124, Final residual = 4.68463e-07, No Iterations 2
DICPCG:  Solving for p, Initial residual = 0.000792363, Final residual = 2.85816e-05, No Iterations 3
time step continuity errors : sum local = 1.437e-09, global = 2.2333e-11, cumulative = -2.45575e-08
DICPCG:  Solving for p, Initial residual = 0.000137955, Final residual = 8.89407e-07, No Iterations 473
time step continuity errors : sum local = 4.47161e-11, global = -1.62058e-13, cumulative = -2.45576e-08
smoothSolver:  Solving for epsilon, Initial residual = 0.000344975, Final residual = 1.98407e-06, No Iterations 1
bounding epsilon, min: -6.09015e-07 max: 0.000345564 average: 4.42729e-06
smoothSolver:  Solving for k, Initial residual = 0.00638315, Final residual = 1.73948e-07, No Iterations 2
ExecutionTime = 82.23 s  ClockTime = 82 s

Time = 3.28

Courant Number mean: 0.120946 max: 0.949653
smoothSolver:  Solving for Ux, Initial residual = 0.00596327, Final residual = 6.23428e-06, No Iterations 2
smoothSolver:  Solving for Uy, Initial residual = 0.00596256, Final residual = 6.21471e-06, No Iterations 2
smoothSolver:  Solving for Uz, Initial residual = 0.00677279, Final residual = 4.60946e-07, No Iterations 2
DICPCG:  Solving for p, Initial residual = 0.000794224, Final residual = 3.08178e-05, No Iterations 3
time step continuity errors : sum local = 1.55317e-09, global = 3.60509e-11, cumulative = -2.45216e-08
DICPCG:  Solving for p, Initial residual = 0.000148225, Final residual = 8.97768e-07, No Iterations 474
time step continuity errors : sum local = 4.52459e-11, global = -9.06838e-13, cumulative = -2.45225e-08
smoothSolver:  Solving for epsilon, Initial residual = 0.000340102, Final residual = 2.02197e-06, No Iterations 1
bounding epsilon, min: -2.23918e-07 max: 0.000345586 average: 4.46429e-06
smoothSolver:  Solving for k, Initial residual = 0.0062171, Final residual = 1.72107e-07, No Iterations 2
ExecutionTime = 84.19 s  ClockTime = 84 s

Time = 3.36

Courant Number mean: 0.120943 max: 0.951481
smoothSolver:  Solving for Ux, Initial residual = 0.00588875, Final residual = 6.10601e-06, No Iterations 2
smoothSolver:  Solving for Uy, Initial residual = 0.00588391, Final residual = 6.0811e-06, No Iterations 2
smoothSolver:  Solving for Uz, Initial residual = 0.00661854, Final residual = 4.43126e-07, No Iterations 2
DICPCG:  Solving for p, Initial residual = 0.000921609, Final residual = 3.39068e-05, No Iterations 3
time step continuity errors : sum local = 1.7132e-09, global = 4.11127e-11, cumulative = -2.44814e-08
DICPCG:  Solving for p, Initial residual = 0.000185649, Final residual = 8.54363e-07, No Iterations 472
time step continuity errors : sum local = 4.31646e-11, global = -5.3539e-13, cumulative = -2.44819e-08
smoothSolver:  Solving for epsilon, Initial residual = 0.000334554, Final residual = 1.93274e-06, No Iterations 1
bounding epsilon, min: -7.59349e-07 max: 0.000345588 average: 4.50041e-06
smoothSolver:  Solving for k, Initial residual = 0.00605867, Final residual = 1.63407e-07, No Iterations 2
ExecutionTime = 86.16 s  ClockTime = 86 s

Time = 3.44

Courant Number mean: 0.120941 max: 0.953214
smoothSolver:  Solving for Ux, Initial residual = 0.00579041, Final residual = 5.41044e-06, No Iterations 2
smoothSolver:  Solving for Uy, Initial residual = 0.0057867, Final residual = 5.37098e-06, No Iterations 2
smoothSolver:  Solving for Uz, Initial residual = 0.00647222, Final residual = 4.32491e-07, No Iterations 2
DICPCG:  Solving for p, Initial residual = 0.000675614, Final residual = 2.2573e-05, No Iterations 3
time step continuity errors : sum local = 1.14318e-09, global = 4.82991e-11, cumulative = -2.44336e-08
DICPCG:  Solving for p, Initial residual = 0.00011116, Final residual = 8.67078e-07, No Iterations 473
time step continuity errors : sum local = 4.39127e-11, global = -7.57183e-14, cumulative = -2.44337e-08
smoothSolver:  Solving for epsilon, Initial residual = 0.0003293, Final residual = 1.89622e-06, No Iterations 1
bounding epsilon, min: -2.23821e-07 max: 0.000345593 average: 4.53662e-06
smoothSolver:  Solving for k, Initial residual = 0.00590737, Final residual = 1.56972e-07, No Iterations 2
ExecutionTime = 88.16 s  ClockTime = 88 s

Time = 3.52

Courant Number mean: 0.120938 max: 0.95483
smoothSolver:  Solving for Ux, Initial residual = 0.00587537, Final residual = 5.8262e-06, No Iterations 2
smoothSolver:  Solving for Uy, Initial residual = 0.00586053, Final residual = 5.80386e-06, No Iterations 2
smoothSolver:  Solving for Uz, Initial residual = 0.00633594, Final residual = 4.39426e-07, No Iterations 2
DICPCG:  Solving for p, Initial residual = 0.000851509, Final residual = 3.79343e-05, No Iterations 3
time step continuity errors : sum local = 1.92567e-09, global = 4.63984e-11, cumulative = -2.43873e-08
DICPCG:  Solving for p, Initial residual = 0.000170402, Final residual = 8.89181e-07, No Iterations 476
time step continuity errors : sum local = 4.51411e-11, global = -6.87534e-13, cumulative = -2.4388e-08
smoothSolver:  Solving for epsilon, Initial residual = 0.000325531, Final residual = 2.08137e-06, No Iterations 1
bounding epsilon, min: -2.23758e-07 max: 0.000345594 average: 4.5731e-06
smoothSolver:  Solving for k, Initial residual = 0.00576308, Final residual = 1.58602e-07, No Iterations 2
ExecutionTime = 90.24 s  ClockTime = 90 s

Time = 3.6

Courant Number mean: 0.120935 max: 0.956311
smoothSolver:  Solving for Ux, Initial residual = 0.00576842, Final residual = 5.81682e-06, No Iterations 2
smoothSolver:  Solving for Uy, Initial residual = 0.0057596, Final residual = 5.7406e-06, No Iterations 2
smoothSolver:  Solving for Uz, Initial residual = 0.0061991, Final residual = 4.13836e-07, No Iterations 2
DICPCG:  Solving for p, Initial residual = 0.00105466, Final residual = 4.78479e-05, No Iterations 3
time step continuity errors : sum local = 2.43517e-09, global = 4.50809e-11, cumulative = -2.43429e-08
DICPCG:  Solving for p, Initial residual = 0.00023098, Final residual = 9.64748e-07, No Iterations 470
time step continuity errors : sum local = 4.90906e-11, global = -8.42762e-13, cumulative = -2.43437e-08
smoothSolver:  Solving for epsilon, Initial residual = 0.000319939, Final residual = 1.86182e-06, No Iterations 1
bounding epsilon, min: -9.57984e-07 max: 0.000345584 average: 4.60814e-06
smoothSolver:  Solving for k, Initial residual = 0.0056248, Final residual = 1.4797e-07, No Iterations 2
ExecutionTime = 92.39 s  ClockTime = 92 s

Time = 3.68

Courant Number mean: 0.120933 max: 0.957648
smoothSolver:  Solving for Ux, Initial residual = 0.00564266, Final residual = 4.82204e-06, No Iterations 2
smoothSolver:  Solving for Uy, Initial residual = 0.00564107, Final residual = 4.79773e-06, No Iterations 2
smoothSolver:  Solving for Uz, Initial residual = 0.00607051, Final residual = 4.03389e-07, No Iterations 2
DICPCG:  Solving for p, Initial residual = 0.00060328, Final residual = 2.14913e-05, No Iterations 3
time step continuity errors : sum local = 1.09599e-09, global = 2.99671e-11, cumulative = -2.43138e-08
DICPCG:  Solving for p, Initial residual = 9.31641e-05, Final residual = 8.07068e-07, No Iterations 474
time step continuity errors : sum local = 4.11608e-11, global = -6.65266e-13, cumulative = -2.43144e-08
smoothSolver:  Solving for epsilon, Initial residual = 0.00031502, Final residual = 1.81867e-06, No Iterations 1
bounding epsilon, min: -2.23618e-07 max: 0.000345583 average: 4.64386e-06
smoothSolver:  Solving for k, Initial residual = 0.00549244, Final residual = 1.41985e-07, No Iterations 2
ExecutionTime = 94.38 s  ClockTime = 94 s

Time = 3.76

Courant Number mean: 0.12093 max: 0.958839
smoothSolver:  Solving for Ux, Initial residual = 0.00566898, Final residual = 4.97494e-06, No Iterations 2
smoothSolver:  Solving for Uy, Initial residual = 0.0056629, Final residual = 4.95673e-06, No Iterations 2
smoothSolver:  Solving for Uz, Initial residual = 0.00594902, Final residual = 3.99997e-07, No Iterations 2
DICPCG:  Solving for p, Initial residual = 0.000706388, Final residual = 2.87316e-05, No Iterations 3
time step continuity errors : sum local = 1.4686e-09, global = 4.06785e-11, cumulative = -2.42737e-08
DICPCG:  Solving for p, Initial residual = 0.000136592, Final residual = 8.91234e-07, No Iterations 474
time step continuity errors : sum local = 4.55588e-11, global = -1.12851e-12, cumulative = -2.42749e-08
smoothSolver:  Solving for epsilon, Initial residual = 0.000311015, Final residual = 1.8766e-06, No Iterations 1
bounding epsilon, min: -2.2355e-07 max: 0.000345582 average: 4.67952e-06
smoothSolver:  Solving for k, Initial residual = 0.00536583, Final residual = 1.41203e-07, No Iterations 2
ExecutionTime = 96.36 s  ClockTime = 96 s

Time = 3.84

Courant Number mean: 0.120928 max: 0.95989
smoothSolver:  Solving for Ux, Initial residual = 0.005581, Final residual = 5.02417e-06, No Iterations 2
smoothSolver:  Solving for Uy, Initial residual = 0.00557677, Final residual = 4.98514e-06, No Iterations 2
smoothSolver:  Solving for Uz, Initial residual = 0.00582901, Final residual = 3.8656e-07, No Iterations 2
DICPCG:  Solving for p, Initial residual = 0.000846484, Final residual = 3.62143e-05, No Iterations 3
time step continuity errors : sum local = 1.85559e-09, global = 3.5951e-11, cumulative = -2.42389e-08
DICPCG:  Solving for p, Initial residual = 0.000176384, Final residual = 9.64237e-07, No Iterations 470
time step continuity errors : sum local = 4.94029e-11, global = -9.94357e-13, cumulative = -2.42399e-08
smoothSolver:  Solving for epsilon, Initial residual = 0.000306108, Final residual = 1.77531e-06, No Iterations 1
bounding epsilon, min: -7.57828e-07 max: 0.000345568 average: 4.7141e-06
smoothSolver:  Solving for k, Initial residual = 0.00524421, Final residual = 1.35567e-07, No Iterations 2
ExecutionTime = 98.34 s  ClockTime = 98 s

Time = 3.92

Courant Number mean: 0.120925 max: 0.960812
smoothSolver:  Solving for Ux, Initial residual = 0.00552727, Final residual = 4.48538e-06, No Iterations 2
smoothSolver:  Solving for Uy, Initial residual = 0.00550981, Final residual = 4.43536e-06, No Iterations 2
smoothSolver:  Solving for Uz, Initial residual = 0.00571714, Final residual = 3.80735e-07, No Iterations 2
DICPCG:  Solving for p, Initial residual = 0.000604568, Final residual = 2.28078e-05, No Iterations 3
time step continuity errors : sum local = 1.171e-09, global = 2.8712e-11, cumulative = -2.42112e-08
DICPCG:  Solving for p, Initial residual = 9.98795e-05, Final residual = 9.33775e-07, No Iterations 473
time step continuity errors : sum local = 4.79446e-11, global = -9.36561e-13, cumulative = -2.42121e-08
smoothSolver:  Solving for epsilon, Initial residual = 0.000301942, Final residual = 1.8189e-06, No Iterations 1
bounding epsilon, min: -2.23421e-07 max: 0.000345561 average: 4.74924e-06
smoothSolver:  Solving for k, Initial residual = 0.0051275, Final residual = 1.32822e-07, No Iterations 2
ExecutionTime = 100.35 s  ClockTime = 100 s

Time = 4

Courant Number mean: 0.120922 max: 0.961625
smoothSolver:  Solving for Ux, Initial residual = 0.00556382, Final residual = 5.11332e-06, No Iterations 2
smoothSolver:  Solving for Uy, Initial residual = 0.00555713, Final residual = 5.04251e-06, No Iterations 2
smoothSolver:  Solving for Uz, Initial residual = 0.00561198, Final residual = 3.84011e-07, No Iterations 2
DICPCG:  Solving for p, Initial residual = 0.00082707, Final residual = 3.59789e-05, No Iterations 3
time step continuity errors : sum local = 1.85142e-09, global = 3.31079e-11, cumulative = -2.4179e-08
DICPCG:  Solving for p, Initial residual = 0.000165218, Final residual = 9.35946e-07, No Iterations 471
time step continuity errors : sum local = 4.81653e-11, global = -1.06823e-12, cumulative = -2.41801e-08
smoothSolver:  Solving for epsilon, Initial residual = 0.000298311, Final residual = 1.87369e-06, No Iterations 1
bounding epsilon, min: -6.8824e-07 max: 0.000345555 average: 4.78395e-06
smoothSolver:  Solving for k, Initial residual = 0.00501543, Final residual = 1.32098e-07, No Iterations 2
ExecutionTime = 102.86 s  ClockTime = 103 s

Time = 4.08

Courant Number mean: 0.12092 max: 0.962347
smoothSolver:  Solving for Ux, Initial residual = 0.00544104, Final residual = 4.85555e-06, No Iterations 2
smoothSolver:  Solving for Uy, Initial residual = 0.00544092, Final residual = 4.82741e-06, No Iterations 2
smoothSolver:  Solving for Uz, Initial residual = 0.00550631, Final residual = 3.6262e-07, No Iterations 2
DICPCG:  Solving for p, Initial residual = 0.00089145, Final residual = 3.99249e-05, No Iterations 3
time step continuity errors : sum local = 2.05907e-09, global = 2.6358e-11, cumulative = -2.41537e-08
DICPCG:  Solving for p, Initial residual = 0.000193844, Final residual = 9.52006e-07, No Iterations 470
time step continuity errors : sum local = 4.90914e-11, global = -9.25903e-13, cumulative = -2.41547e-08
smoothSolver:  Solving for epsilon, Initial residual = 0.0002934, Final residual = 1.72461e-06, No Iterations 1
bounding epsilon, min: -9.57795e-07 max: 0.000345546 average: 4.81789e-06
smoothSolver:  Solving for k, Initial residual = 0.00490742, Final residual = 1.23298e-07, No Iterations 2
ExecutionTime = 104.98 s  ClockTime = 105 s

Time = 4.16

Courant Number mean: 0.120917 max: 0.962998
smoothSolver:  Solving for Ux, Initial residual = 0.00533872, Final residual = 4.0888e-06, No Iterations 2
smoothSolver:  Solving for Uy, Initial residual = 0.00533378, Final residual = 4.06884e-06, No Iterations 2
smoothSolver:  Solving for Uz, Initial residual = 0.00540675, Final residual = 3.54575e-07, No Iterations 2
DICPCG:  Solving for p, Initial residual = 0.000555975, Final residual = 2.0552e-05, No Iterations 3
time step continuity errors : sum local = 1.06189e-09, global = 2.71311e-11, cumulative = -2.41275e-08
DICPCG:  Solving for p, Initial residual = 9.12022e-05, Final residual = 8.29638e-07, No Iterations 474
time step continuity errors : sum local = 4.28694e-11, global = -5.69857e-13, cumulative = -2.41281e-08
smoothSolver:  Solving for epsilon, Initial residual = 0.000289161, Final residual = 1.6925e-06, No Iterations 1
bounding epsilon, min: -2.23254e-07 max: 0.000345548 average: 4.85223e-06
smoothSolver:  Solving for k, Initial residual = 0.0048035, Final residual = 1.20449e-07, No Iterations 2
ExecutionTime = 107.08 s  ClockTime = 107 s

Time = 4.24

Courant Number mean: 0.120914 max: 0.96359
smoothSolver:  Solving for Ux, Initial residual = 0.00534432, Final residual = 4.27511e-06, No Iterations 2
smoothSolver:  Solving for Uy, Initial residual = 0.00533919, Final residual = 4.23555e-06, No Iterations 2
smoothSolver:  Solving for Uz, Initial residual = 0.0053119, Final residual = 3.51747e-07, No Iterations 2
DICPCG:  Solving for p, Initial residual = 0.000666785, Final residual = 2.75256e-05, No Iterations 3
time step continuity errors : sum local = 1.42517e-09, global = 2.34354e-11, cumulative = -2.41047e-08
DICPCG:  Solving for p, Initial residual = 0.000129585, Final residual = 8.78986e-07, No Iterations 472
time step continuity errors : sum local = 4.55122e-11, global = -7.76095e-13, cumulative = -2.41054e-08
smoothSolver:  Solving for epsilon, Initial residual = 0.000285546, Final residual = 1.72747e-06, No Iterations 1
bounding epsilon, min: -2.23204e-07 max: 0.000345553 average: 4.88628e-06
smoothSolver:  Solving for k, Initial residual = 0.00470359, Final residual = 1.18619e-07, No Iterations 2
ExecutionTime = 109.28 s  ClockTime = 109 s

Time = 4.32

Courant Number mean: 0.120912 max: 0.964135
smoothSolver:  Solving for Ux, Initial residual = 0.0052779, Final residual = 4.29145e-06, No Iterations 2
smoothSolver:  Solving for Uy, Initial residual = 0.00526538, Final residual = 4.26559e-06, No Iterations 2
smoothSolver:  Solving for Uz, Initial residual = 0.00521827, Final residual = 3.41189e-07, No Iterations 2
DICPCG:  Solving for p, Initial residual = 0.000781382, Final residual = 3.02612e-05, No Iterations 3
time step continuity errors : sum local = 1.57009e-09, global = 1.95789e-11, cumulative = -2.40859e-08
DICPCG:  Solving for p, Initial residual = 0.000161822, Final residual = 9.52569e-07, No Iterations 466
time step continuity errors : sum local = 4.94214e-11, global = -1.67863e-13, cumulative = -2.4086e-08
smoothSolver:  Solving for epsilon, Initial residual = 0.000281485, Final residual = 1.69925e-06, No Iterations 1
bounding epsilon, min: -7.58376e-07 max: 0.000345544 average: 4.91967e-06
smoothSolver:  Solving for k, Initial residual = 0.00460728, Final residual = 1.14575e-07, No Iterations 2
ExecutionTime = 111.48 s  ClockTime = 111 s

Time = 4.4

Courant Number mean: 0.120909 max: 0.964636
smoothSolver:  Solving for Ux, Initial residual = 0.00518665, Final residual = 3.91695e-06, No Iterations 2
smoothSolver:  Solving for Uy, Initial residual = 0.00518016, Final residual = 3.84606e-06, No Iterations 2
smoothSolver:  Solving for Uz, Initial residual = 0.00512821, Final residual = 3.33698e-07, No Iterations 2
DICPCG:  Solving for p, Initial residual = 0.000588426, Final residual = 2.38296e-05, No Iterations 3
time step continuity errors : sum local = 1.23877e-09, global = 2.21925e-11, cumulative = -2.40638e-08
DICPCG:  Solving for p, Initial residual = 0.00010187, Final residual = 9.92499e-07, No Iterations 471
time step continuity errors : sum local = 5.15973e-11, global = -6.41316e-13, cumulative = -2.40645e-08
smoothSolver:  Solving for epsilon, Initial residual = 0.00027742, Final residual = 1.62307e-06, No Iterations 1
bounding epsilon, min: -5.95586e-07 max: 0.000345544 average: 4.95291e-06
smoothSolver:  Solving for k, Initial residual = 0.00451436, Final residual = 1.11851e-07, No Iterations 2
ExecutionTime = 113.62 s  ClockTime = 114 s

Time = 4.48

Courant Number mean: 0.120906 max: 0.965094
smoothSolver:  Solving for Ux, Initial residual = 0.00522714, Final residual = 4.29287e-06, No Iterations 2
smoothSolver:  Solving for Uy, Initial residual = 0.00522704, Final residual = 4.28202e-06, No Iterations 2
smoothSolver:  Solving for Uz, Initial residual = 0.00504392, Final residual = 3.39839e-07, No Iterations 2
DICPCG:  Solving for p, Initial residual = 0.000671894, Final residual = 3.20913e-05, No Iterations 3
time step continuity errors : sum local = 1.67154e-09, global = 7.10554e-12, cumulative = -2.40574e-08
DICPCG:  Solving for p, Initial residual = 0.000134866, Final residual = 9.74497e-07, No Iterations 474
time step continuity errors : sum local = 5.07653e-11, global = -9.84838e-13, cumulative = -2.40584e-08
smoothSolver:  Solving for epsilon, Initial residual = 0.000274413, Final residual = 1.74741e-06, No Iterations 1
bounding epsilon, min: -2.23066e-07 max: 0.000345543 average: 4.98639e-06
smoothSolver:  Solving for k, Initial residual = 0.00442487, Final residual = 1.12241e-07, No Iterations 2
ExecutionTime = 116.33 s  ClockTime = 117 s

Time = 4.56

Courant Number mean: 0.120904 max: 0.965504
smoothSolver:  Solving for Ux, Initial residual = 0.0051437, Final residual = 4.19479e-06, No Iterations 2
smoothSolver:  Solving for Uy, Initial residual = 0.00514025, Final residual = 4.18438e-06, No Iterations 2
smoothSolver:  Solving for Uz, Initial residual = 0.00495819, Final residual = 3.22266e-07, No Iterations 2
DICPCG:  Solving for p, Initial residual = 0.000853966, Final residual = 3.81429e-05, No Iterations 3
time step continuity errors : sum local = 1.99095e-09, global = 5.40438e-12, cumulative = -2.4053e-08
DICPCG:  Solving for p, Initial residual = 0.000189707, Final residual = 9.85484e-07, No Iterations 466
time step continuity errors : sum local = 5.14348e-11, global = -1.08579e-12, cumulative = -2.4054e-08
smoothSolver:  Solving for epsilon, Initial residual = 0.000270198, Final residual = 1.59424e-06, No Iterations 1
bounding epsilon, min: -9.66255e-07 max: 0.000345537 average: 5.01876e-06
smoothSolver:  Solving for k, Initial residual = 0.0043383, Final residual = 1.06977e-07, No Iterations 2
ExecutionTime = 118.79 s  ClockTime = 119 s

Time = 4.64

Courant Number mean: 0.120901 max: 0.965861
smoothSolver:  Solving for Ux, Initial residual = 0.00503383, Final residual = 3.48401e-06, No Iterations 2
smoothSolver:  Solving for Uy, Initial residual = 0.00503125, Final residual = 3.45112e-06, No Iterations 2
smoothSolver:  Solving for Uz, Initial residual = 0.00487684, Final residual = 3.1627e-07, No Iterations 2
DICPCG:  Solving for p, Initial residual = 0.000517533, Final residual = 1.99982e-05, No Iterations 3
time step continuity errors : sum local = 1.04563e-09, global = 5.89733e-12, cumulative = -2.40481e-08
DICPCG:  Solving for p, Initial residual = 8.52947e-05, Final residual = 8.11123e-07, No Iterations 472
time step continuity errors : sum local = 4.24129e-11, global = -3.69035e-13, cumulative = -2.40485e-08
smoothSolver:  Solving for epsilon, Initial residual = 0.000266397, Final residual = 1.56396e-06, No Iterations 1
bounding epsilon, min: -2.22988e-07 max: 0.000345542 average: 5.05132e-06
smoothSolver:  Solving for k, Initial residual = 0.00425462, Final residual = 1.05481e-07, No Iterations 2
ExecutionTime = 121.65 s  ClockTime = 122 s

Time = 4.72

Courant Number mean: 0.120898 max: 0.966157
smoothSolver:  Solving for Ux, Initial residual = 0.00506215, Final residual = 3.66016e-06, No Iterations 2
smoothSolver:  Solving for Uy, Initial residual = 0.00504494, Final residual = 3.59001e-06, No Iterations 2
smoothSolver:  Solving for Uz, Initial residual = 0.0048001, Final residual = 3.17011e-07, No Iterations 2
DICPCG:  Solving for p, Initial residual = 0.000623573, Final residual = 2.85965e-05, No Iterations 3
time step continuity errors : sum local = 1.49787e-09, global = 9.50532e-13, cumulative = -2.40476e-08
DICPCG:  Solving for p, Initial residual = 0.000127416, Final residual = 9.63932e-07, No Iterations 473
time step continuity errors : sum local = 5.04942e-11, global = -1.06913e-12, cumulative = -2.40486e-08
smoothSolver:  Solving for epsilon, Initial residual = 0.000263647, Final residual = 1.67968e-06, No Iterations 1
bounding epsilon, min: -2.22956e-07 max: 0.000345548 average: 5.08402e-06
smoothSolver:  Solving for k, Initial residual = 0.00417394, Final residual = 1.07707e-07, No Iterations 2
ExecutionTime = 124.23 s  ClockTime = 125 s

Time = 4.8

Courant Number mean: 0.120896 max: 0.966385
smoothSolver:  Solving for Ux, Initial residual = 0.00495374, Final residual = 3.77069e-06, No Iterations 2
smoothSolver:  Solving for Uy, Initial residual = 0.00494501, Final residual = 3.69725e-06, No Iterations 2
smoothSolver:  Solving for Uz, Initial residual = 0.00472243, Final residual = 3.05162e-07, No Iterations 2
DICPCG:  Solving for p, Initial residual = 0.000775198, Final residual = 3.64216e-05, No Iterations 3
time step continuity errors : sum local = 1.91158e-09, global = -5.78208e-12, cumulative = -2.40544e-08
DICPCG:  Solving for p, Initial residual = 0.00016989, Final residual = 8.51728e-07, No Iterations 469
time step continuity errors : sum local = 4.46999e-11, global = -6.45851e-13, cumulative = -2.40551e-08
smoothSolver:  Solving for epsilon, Initial residual = 0.000259627, Final residual = 1.5183e-06, No Iterations 1
bounding epsilon, min: -8.05893e-07 max: 0.00034554 average: 5.1153e-06
smoothSolver:  Solving for k, Initial residual = 0.00409566, Final residual = 1.01251e-07, No Iterations 2
ExecutionTime = 126.18 s  ClockTime = 127 s

Time = 4.88

Courant Number mean: 0.120893 max: 0.966539
smoothSolver:  Solving for Ux, Initial residual = 0.00483515, Final residual = 3.10396e-06, No Iterations 2
smoothSolver:  Solving for Uy, Initial residual = 0.00483346, Final residual = 3.0787e-06, No Iterations 2
smoothSolver:  Solving for Uz, Initial residual = 0.00464851, Final residual = 2.99759e-07, No Iterations 2
DICPCG:  Solving for p, Initial residual = 0.000451767, Final residual = 1.89109e-05, No Iterations 3
time step continuity errors : sum local = 9.94111e-10, global = -1.45784e-11, cumulative = -2.40696e-08
DICPCG:  Solving for p, Initial residual = 6.8395e-05, Final residual = 9.10946e-07, No Iterations 472
time step continuity errors : sum local = 4.7891e-11, global = -6.12777e-13, cumulative = -2.40703e-08
smoothSolver:  Solving for epsilon, Initial residual = 0.000256045, Final residual = 1.49746e-06, No Iterations 1
bounding epsilon, min: -2.22904e-07 max: 0.000345539 average: 5.14712e-06
smoothSolver:  Solving for k, Initial residual = 0.00401997, Final residual = 9.82261e-08, No Iterations 2
ExecutionTime = 128.11 s  ClockTime = 129 s

Time = 4.96

Courant Number mean: 0.12089 max: 0.966614
smoothSolver:  Solving for Ux, Initial residual = 0.00488208, Final residual = 3.59308e-06, No Iterations 2
smoothSolver:  Solving for Uy, Initial residual = 0.00487867, Final residual = 3.58598e-06, No Iterations 2
smoothSolver:  Solving for Uz, Initial residual = 0.00457912, Final residual = 3.06334e-07, No Iterations 2
DICPCG:  Solving for p, Initial residual = 0.000635973, Final residual = 3.14541e-05, No Iterations 3
time step continuity errors : sum local = 1.65642e-09, global = -1.7864e-11, cumulative = -2.40881e-08
DICPCG:  Solving for p, Initial residual = 0.000130844, Final residual = 7.99727e-07, No Iterations 473
time step continuity errors : sum local = 4.21203e-11, global = -6.69085e-13, cumulative = -2.40888e-08
smoothSolver:  Solving for epsilon, Initial residual = 0.000253508, Final residual = 1.61998e-06, No Iterations 1
bounding epsilon, min: -2.22886e-07 max: 0.000345538 average: 5.17887e-06
smoothSolver:  Solving for k, Initial residual = 0.0039469, Final residual = 1.00551e-07, No Iterations 2
ExecutionTime = 130.06 s  ClockTime = 131 s

Time = 5.04

Courant Number mean: 0.120888 max: 0.966609
smoothSolver:  Solving for Ux, Initial residual = 0.00478725, Final residual = 3.53365e-06, No Iterations 2
smoothSolver:  Solving for Uy, Initial residual = 0.00478389, Final residual = 3.50051e-06, No Iterations 2
smoothSolver:  Solving for Uz, Initial residual = 0.00450762, Final residual = 2.90664e-07, No Iterations 2
DICPCG:  Solving for p, Initial residual = 0.000822014, Final residual = 4.09707e-05, No Iterations 3
time step continuity errors : sum local = 2.16169e-09, global = -2.17525e-11, cumulative = -2.41105e-08
DICPCG:  Solving for p, Initial residual = 0.00018567, Final residual = 9.43844e-07, No Iterations 469
time step continuity errors : sum local = 4.97926e-11, global = -1.08499e-12, cumulative = -2.41116e-08
smoothSolver:  Solving for epsilon, Initial residual = 0.000249609, Final residual = 1.45404e-06, No Iterations 1
bounding epsilon, min: -9.6202e-07 max: 0.000345531 average: 5.20928e-06
smoothSolver:  Solving for k, Initial residual = 0.00387596, Final residual = 9.50833e-08, No Iterations 2
ExecutionTime = 132 s  ClockTime = 133 s

Time = 5.12

Courant Number mean: 0.120885 max: 0.966524
smoothSolver:  Solving for Ux, Initial residual = 0.00470572, Final residual = 2.80438e-06, No Iterations 2
smoothSolver:  Solving for Uy, Initial residual = 0.00469344, Final residual = 2.77097e-06, No Iterations 2
smoothSolver:  Solving for Uz, Initial residual = 0.00444041, Final residual = 2.86321e-07, No Iterations 2
DICPCG:  Solving for p, Initial residual = 0.000477847, Final residual = 1.99429e-05, No Iterations 3
time step continuity errors : sum local = 1.05366e-09, global = -2.21034e-11, cumulative = -2.41337e-08
DICPCG:  Solving for p, Initial residual = 7.77318e-05, Final residual = 9.83076e-07, No Iterations 472
time step continuity errors : sum local = 5.19437e-11, global = -1.08128e-12, cumulative = -2.41348e-08
smoothSolver:  Solving for epsilon, Initial residual = 0.000246455, Final residual = 1.48441e-06, No Iterations 1
bounding epsilon, min: -2.22864e-07 max: 0.000345535 average: 5.24026e-06
smoothSolver:  Solving for k, Initial residual = 0.00380728, Final residual = 9.51515e-08, No Iterations 2
ExecutionTime = 134.07 s  ClockTime = 135 s

Time = 5.2

Courant Number mean: 0.120882 max: 0.966362
smoothSolver:  Solving for Ux, Initial residual = 0.00469691, Final residual = 3.01409e-06, No Iterations 2
smoothSolver:  Solving for Uy, Initial residual = 0.00469076, Final residual = 2.94763e-06, No Iterations 2
smoothSolver:  Solving for Uz, Initial residual = 0.00437573, Final residual = 2.83548e-07, No Iterations 2
DICPCG:  Solving for p, Initial residual = 0.000611923, Final residual = 2.68735e-05, No Iterations 3
time step continuity errors : sum local = 1.42217e-09, global = -2.43951e-11, cumulative = -2.41592e-08
DICPCG:  Solving for p, Initial residual = 0.000119457, Final residual = 8.41129e-07, No Iterations 469
time step continuity errors : sum local = 4.45141e-11, global = -1.35071e-14, cumulative = -2.41592e-08
smoothSolver:  Solving for epsilon, Initial residual = 0.000243606, Final residual = 1.47483e-06, No Iterations 1
bounding epsilon, min: -6.73861e-07 max: 0.000345541 average: 5.27069e-06
smoothSolver:  Solving for k, Initial residual = 0.00374079, Final residual = 9.34142e-08, No Iterations 2
ExecutionTime = 136.16 s  ClockTime = 137 s

Time = 5.28

Courant Number mean: 0.120879 max: 0.96613
smoothSolver:  Solving for Ux, Initial residual = 0.00461675, Final residual = 2.89696e-06, No Iterations 2
smoothSolver:  Solving for Uy, Initial residual = 0.00461596, Final residual = 2.87908e-06, No Iterations 2
smoothSolver:  Solving for Uz, Initial residual = 0.00431098, Final residual = 2.74797e-07, No Iterations 2
DICPCG:  Solving for p, Initial residual = 0.000637012, Final residual = 2.80475e-05, No Iterations 3
time step continuity errors : sum local = 1.4867e-09, global = -2.31989e-11, cumulative = -2.41824e-08
DICPCG:  Solving for p, Initial residual = 0.000132137, Final residual = 8.44887e-07, No Iterations 467
time step continuity errors : sum local = 4.47827e-11, global = 1.97538e-13, cumulative = -2.41822e-08
smoothSolver:  Solving for epsilon, Initial residual = 0.000240113, Final residual = 1.38864e-06, No Iterations 1
bounding epsilon, min: -7.50156e-07 max: 0.000345532 average: 5.30039e-06
smoothSolver:  Solving for k, Initial residual = 0.00367618, Final residual = 8.96289e-08, No Iterations 2
ExecutionTime = 138.12 s  ClockTime = 139 s

Time = 5.36

Courant Number mean: 0.120877 max: 0.965834
smoothSolver:  Solving for Ux, Initial residual = 0.00455274, Final residual = 2.40344e-06, No Iterations 2
smoothSolver:  Solving for Uy, Initial residual = 0.00454746, Final residual = 2.38552e-06, No Iterations 2
smoothSolver:  Solving for Uz, Initial residual = 0.00424914, Final residual = 2.70826e-07, No Iterations 2
DICPCG:  Solving for p, Initial residual = 0.000422397, Final residual = 1.65719e-05, No Iterations 3
time step continuity errors : sum local = 8.79632e-10, global = -2.40893e-11, cumulative = -2.42063e-08
DICPCG:  Solving for p, Initial residual = 6.66156e-05, Final residual = 8.64651e-07, No Iterations 469
time step continuity errors : sum local = 4.58985e-11, global = -1.04781e-12, cumulative = -2.42074e-08
smoothSolver:  Solving for epsilon, Initial residual = 0.000237007, Final residual = 1.38661e-06, No Iterations 1
bounding epsilon, min: -2.22866e-07 max: 0.000345531 average: 5.33029e-06
smoothSolver:  Solving for k, Initial residual = 0.00361353, Final residual = 8.82458e-08, No Iterations 2
ExecutionTime = 140.23 s  ClockTime = 141 s

Time = 5.44

Courant Number mean: 0.120874 max: 0.965483
smoothSolver:  Solving for Ux, Initial residual = 0.00460453, Final residual = 2.94041e-06, No Iterations 2
smoothSolver:  Solving for Uy, Initial residual = 0.00460167, Final residual = 2.91222e-06, No Iterations 2
smoothSolver:  Solving for Uz, Initial residual = 0.00419074, Final residual = 2.76786e-07, No Iterations 2
DICPCG:  Solving for p, Initial residual = 0.000611391, Final residual = 2.9453e-05, No Iterations 3
time step continuity errors : sum local = 1.56577e-09, global = -3.06224e-11, cumulative = -2.4238e-08
DICPCG:  Solving for p, Initial residual = 0.000124535, Final residual = 9.7321e-07, No Iterations 471
time step continuity errors : sum local = 5.17413e-11, global = -9.79909e-13, cumulative = -2.4239e-08
smoothSolver:  Solving for epsilon, Initial residual = 0.000234718, Final residual = 1.48626e-06, No Iterations 1
bounding epsilon, min: -2.22873e-07 max: 0.00034553 average: 5.35989e-06
smoothSolver:  Solving for k, Initial residual = 0.00355284, Final residual = 9.18482e-08, No Iterations 2
ExecutionTime = 142.18 s  ClockTime = 143 s

Time = 5.52

Courant Number mean: 0.120871 max: 0.965084
smoothSolver:  Solving for Ux, Initial residual = 0.00456741, Final residual = 3.17479e-06, No Iterations 2
smoothSolver:  Solving for Uy, Initial residual = 0.00454474, Final residual = 2.96347e-06, No Iterations 2
smoothSolver:  Solving for Uz, Initial residual = 0.00413098, Final residual = 2.66996e-07, No Iterations 2
DICPCG:  Solving for p, Initial residual = 0.000800797, Final residual = 3.54016e-05, No Iterations 3
time step continuity errors : sum local = 1.88488e-09, global = -2.81833e-11, cumulative = -2.42671e-08
DICPCG:  Solving for p, Initial residual = 0.000176535, Final residual = 9.29214e-07, No Iterations 469
time step continuity errors : sum local = 4.94665e-11, global = -1.05911e-12, cumulative = -2.42682e-08
smoothSolver:  Solving for epsilon, Initial residual = 0.000231666, Final residual = 1.46329e-06, No Iterations 1
bounding epsilon, min: -9.66909e-07 max: 0.000345524 average: 5.38862e-06
smoothSolver:  Solving for k, Initial residual = 0.00349383, Final residual = 8.76203e-08, No Iterations 2
ExecutionTime = 144.28 s  ClockTime = 145 s

Time = 5.6

Courant Number mean: 0.120869 max: 0.964649
smoothSolver:  Solving for Ux, Initial residual = 0.00445464, Final residual = 2.42702e-06, No Iterations 2
smoothSolver:  Solving for Uy, Initial residual = 0.00444676, Final residual = 2.34279e-06, No Iterations 2
smoothSolver:  Solving for Uz, Initial residual = 0.00407322, Final residual = 2.57766e-07, No Iterations 2
DICPCG:  Solving for p, Initial residual = 0.000512167, Final residual = 2.33509e-05, No Iterations 3
[...]
DICPCG:  Solving for p, Initial residual = 3.59042e-05, Final residual = 9.37809e-07, No Iterations 423
time step continuity errors : sum local = 4.25776e-11, global = -1.22901e-12, cumulative = -3.01512e-08
smoothSolver:  Solving for epsilon, Initial residual = 2.76181e-05, Final residual = 1.42815e-07, No Iterations 1
bounding epsilon, min: -2.2299e-07 max: 0.000345305 average: 6.72997e-06
smoothSolver:  Solving for k, Initial residual = 0.000161937, Final residual = 8.16529e-07, No Iterations 1
ExecutionTime = 1980.23 s  ClockTime = 2097 s

Time = 118.72

Courant Number mean: 0.118271 max: 0.939454
smoothSolver:  Solving for Ux, Initial residual = 0.000203827, Final residual = 2.58111e-06, No Iterations 1
smoothSolver:  Solving for Uy, Initial residual = 0.000204039, Final residual = 2.60318e-06, No Iterations 1
smoothSolver:  Solving for Uz, Initial residual = 0.00011383, Final residual = 2.90119e-07, No Iterations 1
DICPCG:  Solving for p, Initial residual = 0.000257565, Final residual = 1.07996e-05, No Iterations 5
time step continuity errors : sum local = 4.90047e-10, global = -1.15051e-11, cumulative = -3.01627e-08
DICPCG:  Solving for p, Initial residual = 9.19982e-05, Final residual = 9.98001e-07, No Iterations 21
time step continuity errors : sum local = 4.52877e-11, global = -7.25069e-12, cumulative = -3.01699e-08
smoothSolver:  Solving for epsilon, Initial residual = 2.81121e-05, Final residual = 2.2766e-07, No Iterations 1
bounding epsilon, min: -2.2299e-07 max: 0.000345297 average: 6.7306e-06
smoothSolver:  Solving for k, Initial residual = 0.000161903, Final residual = 8.20292e-07, No Iterations 1
ExecutionTime = 1980.71 s  ClockTime = 2097 s

Time = 118.8

Courant Number mean: 0.11827 max: 0.939454
smoothSolver:  Solving for Ux, Initial residual = 0.000195963, Final residual = 2.08798e-06, No Iterations 1
smoothSolver:  Solving for Uy, Initial residual = 0.000196055, Final residual = 2.09375e-06, No Iterations 1
smoothSolver:  Solving for Uz, Initial residual = 0.000113492, Final residual = 2.78765e-07, No Iterations 1
DICPCG:  Solving for p, Initial residual = 0.000434581, Final residual = 2.1284e-05, No Iterations 4
time step continuity errors : sum local = 9.6597e-10, global = -1.75331e-11, cumulative = -3.01875e-08
DICPCG:  Solving for p, Initial residual = 0.000147491, Final residual = 9.9166e-07, No Iterations 464
time step continuity errors : sum local = 4.49986e-11, global = -6.06141e-13, cumulative = -3.01881e-08
smoothSolver:  Solving for epsilon, Initial residual = 2.76978e-05, Final residual = 1.45138e-07, No Iterations 1
bounding epsilon, min: -8.92856e-07 max: 0.000345307 average: 6.73045e-06
smoothSolver:  Solving for k, Initial residual = 0.000161803, Final residual = 8.15582e-07, No Iterations 1
ExecutionTime = 1982.65 s  ClockTime = 2099 s

Time = 118.88

Courant Number mean: 0.118269 max: 0.939454
smoothSolver:  Solving for Ux, Initial residual = 0.000182849, Final residual = 9.20062e-07, No Iterations 1
smoothSolver:  Solving for Uy, Initial residual = 0.000182864, Final residual = 9.21723e-07, No Iterations 1
smoothSolver:  Solving for Uz, Initial residual = 0.000113312, Final residual = 2.77523e-07, No Iterations 1
DICPCG:  Solving for p, Initial residual = 8.94373e-05, Final residual = 4.16362e-06, No Iterations 5
time step continuity errors : sum local = 1.8901e-10, global = 3.93719e-12, cumulative = -3.01841e-08
DICPCG:  Solving for p, Initial residual = 3.67707e-05, Final residual = 9.54196e-07, No Iterations 62
time step continuity errors : sum local = 4.33174e-11, global = 4.58599e-12, cumulative = -3.01795e-08
smoothSolver:  Solving for epsilon, Initial residual = 2.75501e-05, Final residual = 1.42724e-07, No Iterations 1
bounding epsilon, min: -2.22991e-07 max: 0.000345297 average: 6.73089e-06
smoothSolver:  Solving for k, Initial residual = 0.000161708, Final residual = 8.14807e-07, No Iterations 1
ExecutionTime = 1983.26 s  ClockTime = 2100 s

Time = 118.96

Courant Number mean: 0.118268 max: 0.939454
smoothSolver:  Solving for Ux, Initial residual = 0.000198059, Final residual = 2.08464e-06, No Iterations 1
smoothSolver:  Solving for Uy, Initial residual = 0.000198044, Final residual = 2.0801e-06, No Iterations 1
smoothSolver:  Solving for Uz, Initial residual = 0.000113307, Final residual = 2.84858e-07, No Iterations 1
DICPCG:  Solving for p, Initial residual = 0.00022128, Final residual = 9.45749e-06, No Iterations 5
time step continuity errors : sum local = 4.29328e-10, global = 6.34719e-12, cumulative = -3.01732e-08
DICPCG:  Solving for p, Initial residual = 8.2379e-05, Final residual = 9.9856e-07, No Iterations 432
time step continuity errors : sum local = 4.53309e-11, global = 5.34751e-13, cumulative = -3.01727e-08
smoothSolver:  Solving for epsilon, Initial residual = 2.79205e-05, Final residual = 1.99077e-07, No Iterations 1
bounding epsilon, min: -2.2299e-07 max: 0.00034529 average: 6.73149e-06
smoothSolver:  Solving for k, Initial residual = 0.000161665, Final residual = 8.16811e-07, No Iterations 1
ExecutionTime = 1985.09 s  ClockTime = 2102 s

Time = 119.04

Courant Number mean: 0.118267 max: 0.939454
smoothSolver:  Solving for Ux, Initial residual = 0.00019246, Final residual = 1.82506e-06, No Iterations 1
smoothSolver:  Solving for Uy, Initial residual = 0.000192454, Final residual = 1.82443e-06, No Iterations 1
smoothSolver:  Solving for Uz, Initial residual = 0.000113027, Final residual = 2.77255e-07, No Iterations 1
DICPCG:  Solving for p, Initial residual = 0.000370762, Final residual = 1.77826e-05, No Iterations 4
time step continuity errors : sum local = 8.0696e-10, global = -7.52862e-12, cumulative = -3.01802e-08
DICPCG:  Solving for p, Initial residual = 0.000128082, Final residual = 9.86628e-07, No Iterations 29
time step continuity errors : sum local = 4.47669e-11, global = -4.59915e-12, cumulative = -3.01848e-08
smoothSolver:  Solving for epsilon, Initial residual = 2.75924e-05, Final residual = 1.43786e-07, No Iterations 1
bounding epsilon, min: -7.76158e-07 max: 0.000345308 average: 6.73139e-06
smoothSolver:  Solving for k, Initial residual = 0.000161569, Final residual = 8.13722e-07, No Iterations 1
ExecutionTime = 1985.6 s  ClockTime = 2102 s

Time = 119.12

Courant Number mean: 0.118266 max: 0.939454
smoothSolver:  Solving for Ux, Initial residual = 0.000182854, Final residual = 8.99507e-07, No Iterations 1
smoothSolver:  Solving for Uy, Initial residual = 0.000182856, Final residual = 9.00123e-07, No Iterations 1
smoothSolver:  Solving for Uz, Initial residual = 0.000112863, Final residual = 2.76467e-07, No Iterations 1
DICPCG:  Solving for p, Initial residual = 8.41683e-05, Final residual = 4.14171e-06, No Iterations 5
time step continuity errors : sum local = 1.87916e-10, global = -1.19508e-11, cumulative = -3.01967e-08
DICPCG:  Solving for p, Initial residual = 3.57599e-05, Final residual = 9.90731e-07, No Iterations 412
time step continuity errors : sum local = 4.4952e-11, global = -2.19604e-12, cumulative = -3.01989e-08
smoothSolver:  Solving for epsilon, Initial residual = 2.74625e-05, Final residual = 1.41698e-07, No Iterations 1
bounding epsilon, min: -2.2299e-07 max: 0.000345305 average: 6.73182e-06
smoothSolver:  Solving for k, Initial residual = 0.000161477, Final residual = 8.1182e-07, No Iterations 1
ExecutionTime = 1987.37 s  ClockTime = 2104 s

Time = 119.2

Courant Number mean: 0.118265 max: 0.939454
smoothSolver:  Solving for Ux, Initial residual = 0.000202539, Final residual = 2.58372e-06, No Iterations 1
smoothSolver:  Solving for Uy, Initial residual = 0.000202736, Final residual = 2.60542e-06, No Iterations 1
smoothSolver:  Solving for Uz, Initial residual = 0.000112899, Final residual = 2.87838e-07, No Iterations 1
DICPCG:  Solving for p, Initial residual = 0.000257146, Final residual = 1.09362e-05, No Iterations 5
time step continuity errors : sum local = 4.96409e-10, global = -2.69672e-12, cumulative = -3.02016e-08
DICPCG:  Solving for p, Initial residual = 9.18038e-05, Final residual = 9.78487e-07, No Iterations 142
time step continuity errors : sum local = 4.44167e-11, global = 5.18192e-12, cumulative = -3.01964e-08
smoothSolver:  Solving for epsilon, Initial residual = 2.79567e-05, Final residual = 2.26573e-07, No Iterations 1
bounding epsilon, min: -2.2299e-07 max: 0.000345297 average: 6.73245e-06
smoothSolver:  Solving for k, Initial residual = 0.000161443, Final residual = 8.16057e-07, No Iterations 1
ExecutionTime = 1988.26 s  ClockTime = 2105 s

Time = 119.28

Courant Number mean: 0.118264 max: 0.939454
smoothSolver:  Solving for Ux, Initial residual = 0.000194834, Final residual = 2.09133e-06, No Iterations 1
smoothSolver:  Solving for Uy, Initial residual = 0.000194925, Final residual = 2.09698e-06, No Iterations 1
smoothSolver:  Solving for Uz, Initial residual = 0.00011256, Final residual = 2.76491e-07, No Iterations 1
DICPCG:  Solving for p, Initial residual = 0.000434353, Final residual = 2.10019e-05, No Iterations 4
time step continuity errors : sum local = 9.53468e-10, global = 8.42007e-12, cumulative = -3.0188e-08
DICPCG:  Solving for p, Initial residual = 0.000147085, Final residual = 9.83001e-07, No Iterations 417
time step continuity errors : sum local = 4.46198e-11, global = 1.32535e-12, cumulative = -3.01867e-08
smoothSolver:  Solving for epsilon, Initial residual = 2.75427e-05, Final residual = 1.44111e-07, No Iterations 1
bounding epsilon, min: -8.92853e-07 max: 0.000345307 average: 6.73229e-06
smoothSolver:  Solving for k, Initial residual = 0.000161344, Final residual = 8.11396e-07, No Iterations 1
ExecutionTime = 1990.04 s  ClockTime = 2107 s

Time = 119.36

Courant Number mean: 0.118263 max: 0.939454
smoothSolver:  Solving for Ux, Initial residual = 0.000182849, Final residual = 9.28357e-07, No Iterations 1
smoothSolver:  Solving for Uy, Initial residual = 0.000182851, Final residual = 9.29782e-07, No Iterations 1
smoothSolver:  Solving for Uz, Initial residual = 0.000112404, Final residual = 2.75459e-07, No Iterations 1
DICPCG:  Solving for p, Initial residual = 8.93168e-05, Final residual = 4.17176e-06, No Iterations 5
time step continuity errors : sum local = 1.8928e-10, global = -5.72666e-12, cumulative = -3.01924e-08
DICPCG:  Solving for p, Initial residual = 3.6647e-05, Final residual = 9.92355e-07, No Iterations 29
time step continuity errors : sum local = 4.50259e-11, global = -3.69398e-12, cumulative = -3.01961e-08
smoothSolver:  Solving for epsilon, Initial residual = 2.73952e-05, Final residual = 1.41695e-07, No Iterations 1
bounding epsilon, min: -2.2299e-07 max: 0.000345297 average: 6.73273e-06
smoothSolver:  Solving for k, Initial residual = 0.00016125, Final residual = 8.10498e-07, No Iterations 1
ExecutionTime = 1990.55 s  ClockTime = 2107 s

Time = 119.44

Courant Number mean: 0.118262 max: 0.939454
smoothSolver:  Solving for Ux, Initial residual = 0.000198028, Final residual = 2.09213e-06, No Iterations 1
smoothSolver:  Solving for Uy, Initial residual = 0.000198007, Final residual = 2.08746e-06, No Iterations 1
smoothSolver:  Solving for Uz, Initial residual = 0.0001124, Final residual = 2.82791e-07, No Iterations 1
DICPCG:  Solving for p, Initial residual = 0.000221155, Final residual = 9.54115e-06, No Iterations 5
time step continuity errors : sum local = 4.32901e-10, global = -1.1805e-11, cumulative = -3.02079e-08
DICPCG:  Solving for p, Initial residual = 8.24484e-05, Final residual = 9.8473e-07, No Iterations 84
time step continuity errors : sum local = 4.46798e-11, global = -7.02321e-12, cumulative = -3.02149e-08
smoothSolver:  Solving for epsilon, Initial residual = 2.77659e-05, Final residual = 1.97995e-07, No Iterations 1
bounding epsilon, min: -2.2299e-07 max: 0.00034529 average: 6.73332e-06
smoothSolver:  Solving for k, Initial residual = 0.000161207, Final residual = 8.12577e-07, No Iterations 1
ExecutionTime = 1991.23 s  ClockTime = 2108 s

Time = 119.52

Courant Number mean: 0.118261 max: 0.939454
smoothSolver:  Solving for Ux, Initial residual = 0.000191616, Final residual = 1.83e-06, No Iterations 1
smoothSolver:  Solving for Uy, Initial residual = 0.000191632, Final residual = 1.82931e-06, No Iterations 1
smoothSolver:  Solving for Uz, Initial residual = 0.00011211, Final residual = 2.75058e-07, No Iterations 1
DICPCG:  Solving for p, Initial residual = 0.000370796, Final residual = 1.8034e-05, No Iterations 4
time step continuity errors : sum local = 8.18368e-10, global = -1.36411e-11, cumulative = -3.02286e-08
DICPCG:  Solving for p, Initial residual = 0.00012819, Final residual = 9.07219e-07, No Iterations 73
time step continuity errors : sum local = 4.1164e-11, global = -7.57662e-12, cumulative = -3.02362e-08
smoothSolver:  Solving for epsilon, Initial residual = 2.7438e-05, Final residual = 1.428e-07, No Iterations 1
bounding epsilon, min: -7.76158e-07 max: 0.000345308 average: 6.73322e-06
smoothSolver:  Solving for k, Initial residual = 0.000161112, Final residual = 8.09643e-07, No Iterations 1
ExecutionTime = 1991.88 s  ClockTime = 2109 s

Time = 119.6

Courant Number mean: 0.11826 max: 0.939454
smoothSolver:  Solving for Ux, Initial residual = 0.000182003, Final residual = 9.04807e-07, No Iterations 1
smoothSolver:  Solving for Uy, Initial residual = 0.000182043, Final residual = 9.05325e-07, No Iterations 1
smoothSolver:  Solving for Uz, Initial residual = 0.000111943, Final residual = 2.7427e-07, No Iterations 1
DICPCG:  Solving for p, Initial residual = 8.40342e-05, Final residual = 3.97568e-06, No Iterations 5
time step continuity errors : sum local = 1.80386e-10, global = -1.03932e-11, cumulative = -3.02466e-08
DICPCG:  Solving for p, Initial residual = 3.55329e-05, Final residual = 9.70119e-07, No Iterations 52
time step continuity errors : sum local = 4.40175e-11, global = -8.51206e-12, cumulative = -3.02551e-08
smoothSolver:  Solving for epsilon, Initial residual = 2.73083e-05, Final residual = 1.40686e-07, No Iterations 1
bounding epsilon, min: -2.22991e-07 max: 0.000345305 average: 6.73365e-06
smoothSolver:  Solving for k, Initial residual = 0.000161021, Final residual = 8.08118e-07, No Iterations 1
ExecutionTime = 1992.46 s  ClockTime = 2109 s

Time = 119.68

Courant Number mean: 0.118259 max: 0.939454
smoothSolver:  Solving for Ux, Initial residual = 0.000202339, Final residual = 2.59061e-06, No Iterations 1
smoothSolver:  Solving for Uy, Initial residual = 0.000202564, Final residual = 2.61237e-06, No Iterations 1
smoothSolver:  Solving for Uz, Initial residual = 0.000111988, Final residual = 2.85729e-07, No Iterations 1
DICPCG:  Solving for p, Initial residual = 0.000257545, Final residual = 1.09769e-05, No Iterations 5
time step continuity errors : sum local = 4.98062e-10, global = -1.31327e-11, cumulative = -3.02682e-08
DICPCG:  Solving for p, Initial residual = 9.18182e-05, Final residual = 9.7998e-07, No Iterations 37
time step continuity errors : sum local = 4.44672e-11, global = -8.48048e-12, cumulative = -3.02767e-08
smoothSolver:  Solving for epsilon, Initial residual = 2.7803e-05, Final residual = 2.25573e-07, No Iterations 1
bounding epsilon, min: -2.2299e-07 max: 0.000345296 average: 6.73427e-06
smoothSolver:  Solving for k, Initial residual = 0.000160987, Final residual = 8.11801e-07, No Iterations 1
ExecutionTime = 1993 s  ClockTime = 2110 s

Time = 119.76

Courant Number mean: 0.118258 max: 0.939454
smoothSolver:  Solving for Ux, Initial residual = 0.000194564, Final residual = 2.0978e-06, No Iterations 1
smoothSolver:  Solving for Uy, Initial residual = 0.000194651, Final residual = 2.1034e-06, No Iterations 1
smoothSolver:  Solving for Uz, Initial residual = 0.000111653, Final residual = 2.74395e-07, No Iterations 1
DICPCG:  Solving for p, Initial residual = 0.000434573, Final residual = 2.09963e-05, No Iterations 4
time step continuity errors : sum local = 9.52855e-10, global = -1.24987e-11, cumulative = -3.02892e-08
DICPCG:  Solving for p, Initial residual = 0.000147149, Final residual = 9.78485e-07, No Iterations 28
time step continuity errors : sum local = 4.43981e-11, global = -7.73394e-12, cumulative = -3.02969e-08
smoothSolver:  Solving for epsilon, Initial residual = 2.73891e-05, Final residual = 1.43106e-07, No Iterations 1
bounding epsilon, min: -8.92851e-07 max: 0.000345307 average: 6.73411e-06
smoothSolver:  Solving for k, Initial residual = 0.000160887, Final residual = 8.07891e-07, No Iterations 1
ExecutionTime = 1993.49 s  ClockTime = 2110 s

Time = 119.84

Courant Number mean: 0.118257 max: 0.939454
smoothSolver:  Solving for Ux, Initial residual = 0.000182029, Final residual = 9.33834e-07, No Iterations 1
smoothSolver:  Solving for Uy, Initial residual = 0.000182073, Final residual = 9.35266e-07, No Iterations 1
smoothSolver:  Solving for Uz, Initial residual = 0.000111486, Final residual = 2.73261e-07, No Iterations 1
DICPCG:  Solving for p, Initial residual = 8.91757e-05, Final residual = 4.26595e-06, No Iterations 5
time step continuity errors : sum local = 1.93554e-10, global = -9.79738e-12, cumulative = -3.03067e-08
DICPCG:  Solving for p, Initial residual = 3.67483e-05, Final residual = 9.87899e-07, No Iterations 459
time step continuity errors : sum local = 4.48239e-11, global = 3.22458e-13, cumulative = -3.03064e-08
smoothSolver:  Solving for epsilon, Initial residual = 2.72418e-05, Final residual = 1.4073e-07, No Iterations 1
bounding epsilon, min: -2.22991e-07 max: 0.000345297 average: 6.73455e-06
smoothSolver:  Solving for k, Initial residual = 0.000160792, Final residual = 8.06581e-07, No Iterations 1
ExecutionTime = 1995.41 s  ClockTime = 2112 s

Time = 119.92

Courant Number mean: 0.118256 max: 0.939454
smoothSolver:  Solving for Ux, Initial residual = 0.000196679, Final residual = 2.09474e-06, No Iterations 1
smoothSolver:  Solving for Uy, Initial residual = 0.000196655, Final residual = 2.08997e-06, No Iterations 1
smoothSolver:  Solving for Uz, Initial residual = 0.000111472, Final residual = 2.80447e-07, No Iterations 1
DICPCG:  Solving for p, Initial residual = 0.000220967, Final residual = 9.32906e-06, No Iterations 5
time step continuity errors : sum local = 4.23484e-10, global = 5.36791e-12, cumulative = -3.0301e-08
DICPCG:  Solving for p, Initial residual = 8.21034e-05, Final residual = 9.00805e-07, No Iterations 12
time step continuity errors : sum local = 4.08918e-11, global = 8.15095e-12, cumulative = -3.02929e-08
smoothSolver:  Solving for epsilon, Initial residual = 2.76127e-05, Final residual = 1.96991e-07, No Iterations 1
bounding epsilon, min: -2.2299e-07 max: 0.00034529 average: 6.73514e-06
smoothSolver:  Solving for k, Initial residual = 0.000160749, Final residual = 8.09001e-07, No Iterations 1
ExecutionTime = 1995.89 s  ClockTime = 2113 s

Time = 120

Courant Number mean: 0.118255 max: 0.939454
smoothSolver:  Solving for Ux, Initial residual = 0.000190288, Final residual = 1.83274e-06, No Iterations 1
smoothSolver:  Solving for Uy, Initial residual = 0.000190313, Final residual = 1.83206e-06, No Iterations 1
smoothSolver:  Solving for Uz, Initial residual = 0.000111178, Final residual = 2.72726e-07, No Iterations 1
DICPCG:  Solving for p, Initial residual = 0.000370123, Final residual = 1.8035e-05, No Iterations 4
time step continuity errors : sum local = 8.18808e-10, global = 1.29919e-11, cumulative = -3.02799e-08
DICPCG:  Solving for p, Initial residual = 0.000128043, Final residual = 9.65683e-07, No Iterations 466
time step continuity errors : sum local = 4.38378e-11, global = -4.81205e-13, cumulative = -3.02804e-08
smoothSolver:  Solving for epsilon, Initial residual = 2.72849e-05, Final residual = 1.41786e-07, No Iterations 1
bounding epsilon, min: -7.76158e-07 max: 0.000345309 average: 6.73504e-06
smoothSolver:  Solving for k, Initial residual = 0.000160654, Final residual = 8.05769e-07, No Iterations 1
ExecutionTime = 1998.85 s  ClockTime = 2116 s

End

Finalising parallel run
